
###############################################################################
#
# This file contains modified crystal structure data generated from the
# MOF subset of the Cambridge Structural Database (CSD) v542 
# hosted by the Cambridge Crystallographic Data Centre (CCDC).
#
# This work is licensed under the Creative Commons
# Attribution-NonCommercial-ShareAlike 4.0 International License.
# To view a copy of this license, visit
# http://creativecommons.org/licenses/by-nc-sa/4.0/
# or send a letter to
# Creative Commons, PO Box 1866, Mountain View, CA 94042, USA.
#
# CIF created using the CSD Python API on 22 February 2021
# The structure has been converted into the P1 space group
# The structure has a 3D framework
# The original CSD entry BUSQIQ is in the monoclinic crystal system
# The framework has been calculated to contain at least 10.0% void space
# The void calculation uses a probe of radius 1.32A, grid spacing 0.4
# H atom positions have been added when not included in the experimental data
#
###############################################################################

data_BUSQIQ
_chemical_formula_moiety         '(C22 H32 Al9 O25)n'
_symmetry_cell_setting           triclinic
_symmetry_space_group_name_H-M   'P 1'
_symmetry_Int_Tables_number      1
_space_group_name_Hall           'P 1'
loop_
_symmetry_equiv_pos_site_id
_symmetry_equiv_pos_as_xyz
1 x,y,z
_cell_length_a                   9.7480(10)
_cell_length_b                   20.0480(10)
_cell_length_c                   7.4890(10)
_cell_angle_alpha                90
_cell_angle_beta                 134.420(10)
_cell_angle_gamma                90
_cell_volume                     1045.32
loop_
_atom_site_label
_atom_site_type_symbol
_atom_site_fract_x
_atom_site_fract_y
_atom_site_fract_z
Al6 Al 0.5000 0.20482(14) 0.0000
O1 O 0.2641(6) 0.2918(2) 0.2885(8)
Al1 Al 0.0000 0.29518(14) 0.0000
Al2 Al 0.2500 0.2500 0.5000
O6 O 0.2359(6) 0.2082(2) 0.7115(8)
O10 O 0.0020(6) 0.2335(2) 0.1930(8)
O11 O 0.4980(6) 0.2665(2) 0.8070(8)
O23 O 0.1687(6) 0.3347(2) 0.5332(7)
O24 O 0.3313(6) 0.1653(2) 0.4668(7)
Al5 Al 0.0000 0.70482(14) 0.0000
Al6_2 Al 0.5000 0.20482(14) 1.0000
O3 O 0.0399(6) 0.3678(2) 0.8711(8)
Al1_2 Al 0.0000 0.29518(14) 1.0000
C4 C 0.0511(9) 0.3757(3) 0.3573(13)
C5 C 0.0511(9) 0.6243(3) 0.3573(13)
C7 C 0.0156(8) 0.4402(3) 0.4219(10)
C8 C 0.0156(8) 0.5598(3) 0.4219(10)
C10 C 0.0307(12) 0.5000 0.3458(17)
H4 H 0.0519 0.5000 0.2398
O17 O 0.0399(6) 0.6322(2) 0.8711(8)
O21 O 0.1687(6) 0.6653(2) 0.5332(7)
Al5_2 Al 0.0000 0.70482(14) 1.0000
Al9 Al 0.2500 0.7500 0.5000
Al1_3 Al 1.0000 0.29518(14) 0.0000
O18 O 0.9601(6) 0.3678(2) 0.1289(8)
Al5_3 Al 1.0000 0.70482(14) 0.0000
C1 C 0.9489(9) 0.3757(3) 0.6427(13)
C2 C 0.9844(8) 0.4402(3) 0.5781(10)
C3 C 0.9693(12) 0.5000 0.6542(17)
H1 H 0.9481 0.5000 0.7602
O2 O 0.9980(6) 0.2335(2) 0.8070(8)
O4 O 0.8313(6) 0.3347(2) 0.4668(7)
Al1_4 Al 1.0000 0.29518(14) 1.0000
C6 C 0.9489(9) 0.6243(3) 0.6427(13)
C9 C 0.9844(8) 0.5598(3) 0.5781(10)
O5 O 0.7359(6) 0.2918(2) 0.7115(8)
O9 O 0.7641(6) 0.2082(2) 0.2885(8)
O14 O 0.5020(6) 0.2665(2) 0.1930(8)
O16 O 0.9601(6) 0.6322(2) 0.1289(8)
O22 O 0.8313(6) 0.6653(2) 0.4668(7)
O25 O 0.6687(6) 0.1653(2) 0.5332(7)
Al5_4 Al 1.0000 0.70482(14) 1.0000
Al7 Al 0.7500 0.2500 0.5000
Al10 Al 0.7500 0.7500 0.5000
C3_2 C 0.4693(12) 0.0000 0.6542(17)
H1_2 H 0.4481 0.0000 0.7602
C5_2 C 0.5511(9) 0.1243(3) 0.3573(13)
C6_2 C 0.4489(9) 0.1243(3) 0.6427(13)
C8_2 C 0.5156(8) 0.0598(3) 0.4219(10)
C9_2 C 0.4844(8) 0.0598(3) 0.5781(10)
C10_2 C 0.5307(12) 0.0000 0.3458(17)
H4_2 H 0.5519 0.0000 0.2398
O16_2 O 0.4601(6) 0.1322(2) 0.1289(8)
O17_2 O 0.5399(6) 0.1322(2) 0.8711(8)
O1_2 O 0.7641(6) 0.7918(2) 0.2885(8)
Al1_5 Al 0.5000 0.79518(14) 0.0000
O6_2 O 0.7359(6) 0.7082(2) 0.7115(8)
O10_2 O 0.5020(6) 0.7335(2) 0.1930(8)
O11_2 O 0.9980(6) 0.7665(2) 0.8070(8)
O18_2 O 0.4601(6) 0.8678(2) 0.1289(8)
O23_2 O 0.6687(6) 0.8347(2) 0.5332(7)
C1_2 C 0.4489(9) 0.8757(3) 0.6427(13)
C2_2 C 0.4844(8) 0.9402(3) 0.5781(10)
C3_3 C 0.4693(12) 1.0000 0.6542(17)
H1_3 H 0.4481 1.0000 0.7602
O2_2 O 0.4980(6) 0.7335(2) 0.8070(8)
O3_2 O 0.5399(6) 0.8678(2) 0.8711(8)
O4_2 O 0.3313(6) 0.8347(2) 0.4668(7)
Al1_6 Al 0.5000 0.79518(14) 1.0000
C4_2 C 0.5511(9) 0.8757(3) 0.3573(13)
C7_2 C 0.5156(8) 0.9402(3) 0.4219(10)
C10_3 C 0.5307(12) 1.0000 0.3458(17)
H4_3 H 0.5519 1.0000 0.2398
O5_2 O 0.2359(6) 0.7918(2) 0.7115(8)
O9_2 O 0.2641(6) 0.7082(2) 0.2885(8)
O14_2 O 0.0020(6) 0.7665(2) 0.1930(8)
loop_
_geom_bond_atom_site_label_1
_geom_bond_atom_site_label_2
_geom_bond_site_symmetry_1
_geom_bond_site_symmetry_2
O1 Al1 1_555 1_555
Al2 O1 1_555 1_555
O6 Al2 1_555 1_555
O10 Al1 1_555 1_555
O11 Al2 1_555 1_555
O23 Al2 1_555 1_555
O24 Al2 1_555 1_555
Al6_2 O6 1_555 1_555
Al2 O10 1_555 1_555
O11 Al6_2 1_555 1_555
Al1_2 O3 1_555 1_555
C4 C7 1_555 1_555
C5 C8 1_555 1_555
C10 C7 1_555 1_555
H4 C10 1_555 1_555
O23 C4 1_555 1_555
O21 C5 1_555 1_555
Al5_2 O17 1_555 1_555
Al9 O21 1_555 1_555
C8 C10 1_555 1_555
O18 Al1_3 1_555 1_555
C1 C2 1_555 1_555
C2 C3 1_555 1_555
C3 H1 1_555 1_555
O2 Al1_4 1_555 1_555
O4 C1 1_555 1_555
C6 C9 1_555 1_555
C9 C3 1_555 1_555
O5 Al1_4 1_555 1_555
O9 Al7 1_555 1_555
O14 Al7 1_555 1_555
O22 C6 1_555 1_555
O25 Al7 1_555 1_555
Al5_3 O16 1_555 1_555
Al7 O2 1_555 1_555
Al10 O22 1_555 1_555
O4 Al7 1_555 1_555
O5 Al7 1_555 1_555
Al6 O9 1_555 1_555
O14 Al6 1_555 1_555
C3_2 H1_2 1_555 1_555
C5_2 C8_2 1_555 1_555
C6_2 C9_2 1_555 1_555
C8_2 C9_2 1_555 1_555
C9_2 C3_2 1_555 1_555
H4_2 C10_2 1_555 1_555
O16_2 C5_2 1_555 1_555
O17_2 C6_2 1_555 1_555
O25 C5_2 1_555 1_555
O24 C6_2 1_555 1_555
Al6 O16_2 1_555 1_555
Al6_2 O17_2 1_555 1_555
C8_2 C10_2 1_555 1_555
O1_2 Al1_5 1_555 1_555
Al10 O1_2 1_555 1_555
O6_2 Al10 1_555 1_555
O10_2 Al1_5 1_555 1_555
O11_2 Al10 1_555 1_555
O18_2 Al1_5 1_555 1_555
O23_2 Al10 1_555 1_555
Al5_4 O6_2 1_555 1_555
Al10 O10_2 1_555 1_555
O11_2 Al5_4 1_555 1_555
C1_2 C2_2 1_555 1_555
C2_2 C3_3 1_555 1_555
C3_3 H1_3 1_555 1_555
O2_2 Al1_6 1_555 1_555
O3_2 C1_2 1_555 1_555
O4_2 C1_2 1_555 1_555
Al1_6 O3_2 1_555 1_555
C4_2 C7_2 1_555 1_555
C7_2 C2_2 1_555 1_555
C10_3 C7_2 1_555 1_555
H4_3 C10_3 1_555 1_555
O5_2 Al1_6 1_555 1_555
O9_2 Al9 1_555 1_555
O14_2 Al9 1_555 1_555
O18_2 C4_2 1_555 1_555
O23_2 C4_2 1_555 1_555
Al9 O2_2 1_555 1_555
O4_2 Al9 1_555 1_555
O5_2 Al9 1_555 1_555
Al5 O9_2 1_555 1_555
O14_2 Al5 1_555 1_555

#END
