
###############################################################################
#
# This file contains modified crystal structure data generated from the
# MOF subset of the Cambridge Structural Database (CSD) v542 
# hosted by the Cambridge Crystallographic Data Centre (CCDC).
#
# This work is licensed under the Creative Commons
# Attribution-NonCommercial-ShareAlike 4.0 International License.
# To view a copy of this license, visit
# http://creativecommons.org/licenses/by-nc-sa/4.0/
# or send a letter to
# Creative Commons, PO Box 1866, Mountain View, CA 94042, USA.
#
# CIF created using the CSD Python API on 22 February 2021
# The structure has been converted into the P1 space group
# The structure has a 3D framework
# The original CSD entry CEZYOY is in the triclinic crystal system
# The framework has been calculated to contain at least 10.0% void space
# The void calculation uses a probe of radius 1.32A, grid spacing 0.4
#
###############################################################################

data_CEZYOY
_chemical_formula_moiety         '(C46 H26 Cu2 N6 O8)n'
_symmetry_cell_setting           triclinic
_symmetry_space_group_name_H-M   'P 1'
_symmetry_Int_Tables_number      1
_space_group_name_Hall           'P 1'
loop_
_symmetry_equiv_pos_site_id
_symmetry_equiv_pos_as_xyz
1 x,y,z
_cell_length_a                   10.2345(7)
_cell_length_b                   10.8931(11)
_cell_length_c                   11.6906(10)
_cell_angle_alpha                64.013(9)
_cell_angle_beta                 82.213(6)
_cell_angle_gamma                72.603(7)
_cell_volume                     1117.95
loop_
_atom_site_label
_atom_site_type_symbol
_atom_site_fract_x
_atom_site_fract_y
_atom_site_fract_z
C13 C 0.0034(3) 0.1102(3) 0.0931(3)
H6 H 0.082956 0.081632 0.138657
Cu1 Cu 0.37982(3) 0.25168(4) 0.83163(4)
O1 O 0.2380(2) 0.1859(2) 0.9584(2)
O3 O 0.1455(2) 0.2394(3) 0.7760(3)
C2 C 0.0060(3) 0.1783(3) 0.9622(3)
C8 C 0.1382(3) 0.2027(4) 0.8927(3)
O5 O 0.5296(2) 0.2100(2) 0.9449(2)
N4 N 0.2887(3) 0.4608(3) 0.7295(3)
N5 N 0.4686(2) 0.1377(3) 0.7316(3)
H3 H 0.071875 0.873494 0.325697
C10 C 0.3126(3) 0.5340(4) 0.6084(4)
H4 H 0.395486 0.501122 0.573649
C14 C 0.0984(3) 0.7114(3) 0.5786(3)
C15 C 0.2212(3) 0.6574(3) 0.5294(3)
H7 H 0.242443 0.703540 0.443930
C22 C 0.1702(4) 0.5181(4) 0.7788(4)
H12 H 0.152033 0.471296 0.864984
C23 C 0.0767(4) 0.6416(4) 0.7070(4)
C4 C 0.6570(3) 0.0294(3) 0.5794(3)
C7 C 0.7633(3) 0.1281(3) 0.0883(3)
H2 H 0.682646 0.110295 0.130535
C11 C 0.8825(3) 0.0834(3) 0.1586(3)
C12 C 0.7668(3) 0.0497(3) 0.3682(3)
H5 H 0.689820 0.120402 0.326355
C16 C 0.4475(3) 0.1887(4) 0.6071(4)
H8 H 0.368445 0.260531 0.571998
C17 C 0.8810(3) 0.0106(3) 0.2988(3)
C18 C 0.5388(3) 0.1391(3) 0.5274(3)
H9 H 0.521441 0.178301 0.440724
C21 C 0.5788(3) 0.0257(4) 0.7820(4)
O4 O 0.6351(2) 0.3152(3) 0.7636(2)
C1 C 0.7641(3) 0.1988(3) 0.9563(3)
C5 C 0.8865(3) 0.2238(3) 0.8937(3)
H1 H 0.888015 0.271253 0.805427
C19 C 0.6348(3) 0.2463(4) 0.8806(3)
N2 N 0.8775(2) 0.8764(3) 0.5654(3)
C3 C 0.9864(3) 0.8370(3) 0.4987(3)
C6 C 0.7695(3) 0.9820(3) 0.5000(3)
C9 C 0.9933(3) 0.9017(3) 0.3681(3)
C20 C 0.6716(3) 0.9699(4) 0.7107(3)
H10 H 0.744824 0.891835 0.749903
H11 H 0.591520 0.984944 0.869529
H13 H 0.998612 0.677950 0.745326
N2_2 N 0.1225(2) 0.1236(3) 0.4346(3)
C3_2 C 0.0136(3) 0.1630(3) 0.5013(3)
C6_2 C 0.2305(3) 0.0180(3) 0.5000(3)
C9_2 C 0.0067(3) 0.0983(3) 0.6319(3)
C20_2 C 0.3284(3) 0.0301(4) 0.2893(3)
H10_2 H 0.255176 0.108165 0.250097
H11_2 H 0.408480 0.015056 0.130471
H13_2 H 0.001388 0.322050 0.254674
O2 O 0.4704(2) 0.7900(2) 0.0551(2)
O4_2 O 0.3649(2) 0.6848(3) 0.2364(2)
C1_2 C 0.2359(3) 0.8012(3) 0.0437(3)
C5_2 C 0.1135(3) 0.7762(3) 0.1063(3)
H1_2 H 0.111985 0.728747 0.194573
C19_2 C 0.3652(3) 0.7537(4) 0.1194(3)
Cu2 Cu 0.62018(3) 0.74832(4) 0.16837(4)
N3 N 0.5314(2) 0.8623(3) 0.2684(3)
C4_2 C 0.3430(3) 0.9706(3) 0.4206(3)
C7_2 C 0.2367(3) 0.8719(3) 0.9117(3)
H2_2 H 0.317354 0.889705 0.869465
C11_2 C 0.1175(3) 0.9166(3) 0.8414(3)
C12_2 C 0.2332(3) 0.9503(3) 0.6318(3)
H5_2 H 0.310180 0.879598 0.673645
C16_2 C 0.5525(3) 0.8113(4) 0.3929(4)
H8_2 H 0.631555 0.739469 0.428002
C17_2 C 0.1190(3) 0.9894(3) 0.7012(3)
C18_2 C 0.4612(3) 0.8609(3) 0.4726(3)
H9_2 H 0.478559 0.821699 0.559276
C21_2 C 0.4212(3) 0.9743(4) 0.2180(4)
N1 N 0.7113(3) 0.5392(3) 0.2705(3)
H3_2 H 0.928125 0.126506 0.674303
C10_2 C 0.6874(3) 0.4660(4) 0.3916(4)
H4_2 H 0.604514 0.498878 0.426351
C14_2 C 0.9016(3) 0.2886(3) 0.4214(3)
C15_2 C 0.7788(3) 0.3426(3) 0.4706(3)
H7_2 H 0.757557 0.296460 0.556070
C22_2 C 0.8298(4) 0.4819(4) 0.2212(4)
H12_2 H 0.847967 0.528704 0.135016
C23_2 C 0.9233(4) 0.3584(4) 0.2930(4)
O1_2 O 0.7620(2) 0.8141(2) 0.0416(2)
O3_2 O 0.8545(2) 0.7606(3) 0.2240(3)
C2_2 C 0.9940(3) 0.8217(3) 0.0378(3)
C8_2 C 0.8618(3) 0.7973(4) 0.1073(3)
C13_2 C 0.9966(3) 0.8898(3) 0.9069(3)
H6_2 H 0.917044 0.918368 0.861343
loop_
_geom_bond_atom_site_label_1
_geom_bond_atom_site_label_2
_geom_bond_site_symmetry_1
_geom_bond_site_symmetry_2
H6 C13 1_555 1_555
Cu1 O1 1_555 1_555
O1 C8 1_555 1_555
O3 Cu1 1_555 1_555
C8 O3 1_555 1_555
O5 Cu1 1_555 1_555
N4 Cu1 1_555 1_555
N5 Cu1 1_555 1_555
C2 C8 1_555 1_555
N4 C10 1_555 1_555
C10 H4 1_555 1_555
C15 C10 1_555 1_555
H7 C15 1_555 1_555
C22 N4 1_555 1_555
H12 C22 1_555 1_555
C23 C14 1_555 1_555
C14 C15 1_555 1_555
C22 C23 1_555 1_555
N5 C16 1_555 1_555
H2 C7 1_555 1_555
C11 C7 1_555 1_555
H5 C12 1_555 1_555
C16 H8 1_555 1_555
C18 C4 1_555 1_555
H9 C18 1_555 1_555
C21 N5 1_555 1_555
C11 C17 1_555 1_555
C12 C17 1_555 1_555
C16 C18 1_555 1_555
O5 C19 1_555 1_555
O4 C19 1_555 1_555
C1 C5 1_555 1_555
C5 H1 1_555 1_555
C19 C1 1_555 1_555
N2 C3 1_555 1_555
C3 C9 1_555 1_555
C6 N2 1_555 1_555
H10 C20 1_555 1_555
N2_2 C3_2 1_555 1_555
C3_2 C9_2 1_555 1_555
C6_2 N2_2 1_555 1_555
H10_2 C20_2 1_555 1_555
O2 C19_2 1_555 1_555
O4_2 C19_2 1_555 1_555
C1_2 C5_2 1_555 1_555
C5_2 H1_2 1_555 1_555
C19_2 C1_2 1_555 1_555
Cu2 O2 1_555 1_555
N3 C16_2 1_555 1_555
H2_2 C7_2 1_555 1_555
C11_2 C7_2 1_555 1_555
H5_2 C12_2 1_555 1_555
C16_2 H8_2 1_555 1_555
C18_2 C4_2 1_555 1_555
H9_2 C18_2 1_555 1_555
C21_2 N3 1_555 1_555
Cu2 N3 1_555 1_555
C11_2 C17_2 1_555 1_555
C12_2 C17_2 1_555 1_555
C16_2 C18_2 1_555 1_555
N1 C10_2 1_555 1_555
C10_2 H4_2 1_555 1_555
C15_2 C10_2 1_555 1_555
H7_2 C15_2 1_555 1_555
C22_2 N1 1_555 1_555
H12_2 C22_2 1_555 1_555
C23_2 C14_2 1_555 1_555
Cu2 N1 1_555 1_555
C14_2 C15_2 1_555 1_555
C22_2 C23_2 1_555 1_555
Cu2 O1_2 1_555 1_555
O1_2 C8_2 1_555 1_555
O3_2 Cu2 1_555 1_555
C8_2 O3_2 1_555 1_555
C2_2 C8_2 1_555 1_555
H6_2 C13_2 1_555 1_555

#END
