
###############################################################################
#
# This file contains modified crystal structure data generated from the
# MOF subset of the Cambridge Structural Database (CSD) v542 
# hosted by the Cambridge Crystallographic Data Centre (CCDC).
#
# This work is licensed under the Creative Commons
# Attribution-NonCommercial-ShareAlike 4.0 International License.
# To view a copy of this license, visit
# http://creativecommons.org/licenses/by-nc-sa/4.0/
# or send a letter to
# Creative Commons, PO Box 1866, Mountain View, CA 94042, USA.
#
# CIF created using the CSD Python API on 22 February 2021
# The structure has been converted into the P1 space group
# The structure has a 3D framework
# The original CSD entry CEZYUE is in the monoclinic crystal system
# The framework has been calculated to contain at least 10.0% void space
# The void calculation uses a probe of radius 1.32A, grid spacing 0.4
# The framework is charged, counterions have been retained in the structure
#
###############################################################################

data_CEZYUE
_chemical_formula_moiety         '(C180 H124 N12 O51 Zn8 3-)n'
_symmetry_cell_setting           triclinic
_symmetry_space_group_name_H-M   'P 1'
_symmetry_Int_Tables_number      1
_space_group_name_Hall           'P 1'
loop_
_symmetry_equiv_pos_site_id
_symmetry_equiv_pos_as_xyz
1 x,y,z
_cell_length_a                   14.6611(11)
_cell_length_b                   23.3118(11)
_cell_length_c                   15.7765(13)
_cell_angle_alpha                90
_cell_angle_beta                 107.491(8)
_cell_angle_gamma                90
_cell_volume                     5142.73
loop_
_atom_site_label
_atom_site_type_symbol
_atom_site_fract_x
_atom_site_fract_y
_atom_site_fract_z
Zn1 Zn 0.26552(5) 0.06124(3) 0.41279(5)
Zn18 Zn 0.500000 0.000000 0.500000
O28 O 0.3528(5) 0.1242(3) 0.3622(6)
O36 O 0.2689(6) 0.0522(4) 0.5566(5)
O41 O 0.1019(6) 0.0741(4) 0.3777(6)
Zn3 Zn 0.500000 0.500000 0.000000
O1 O 0.6472(5) 0.6242(3) 0.1378(6)
O2 O 0.5410(6) 0.5949(3) 0.0143(5)
O4 O 0.3846(6) 0.5108(3) 0.0625(5)
O5 O 0.3871(6) 0.9841(3) 0.3631(5)
O6 O 0.2689(6) 0.4478(4) 0.0566(5)
O7 O 0.6609(7) 0.7225(4) 0.6989(5)
O8 O 0.2357(6) 0.9743(4) 0.3608(7)
O9 O 0.6457(7) 0.7550(4) 0.5658(5)
N1 N 0.2666(6) 0.7332(4) 0.1888(7)
N2 N 0.3471(8) 0.5486(4) 0.4526(5)
C1 C 0.3319(7) 0.5017(4) 0.1890(6)
O11 O 0.2670(7) 0.3317(5) 0.6700(6)
C2 C 0.5622(6) 0.6224(3) 0.0859(7)
C3 C 0.4885(6) 0.6512(4) 0.1147(6)
C4 C 0.3276(7) 0.4856(4) 0.0966(6)
C5 C 0.3113(8) 0.9561(4) 0.3458(6)
C6 C 0.6219(8) 0.7216(4) 0.6140(7)
C7 C 0.5035(6) 0.6732(4) 0.2007(7)
H1 H 0.563328 0.669265 0.242523
C8 C 0.4111(7) 0.5301(4) 0.2419(6)
H2 H 0.462085 0.538133 0.220240
C11 C 0.3407(6) 0.7060(4) 0.1626(8)
C12 C 0.3419(8) 0.5350(4) 0.3637(6)
C13 C 0.2824(7) 0.7870(4) 0.2308(8)
C14 C 0.3950(7) 0.6571(5) 0.0554(7)
C15 C 0.4152(8) 0.5469(5) 0.3287(7)
H4 H 0.468678 0.566557 0.363227
O12 O 0.1869(7) 0.3985(6) 0.7200(8)
C16 C 0.3151(8) 0.5086(5) 0.5052(6)
C17 C 0.3046(6) 0.8956(4) 0.3092(6)
C18 C 0.4318(6) 0.7004(4) 0.2243(7)
H5 H 0.443566 0.715116 0.281408
C19 C 0.5437(8) 0.6785(4) 0.5761(6)
C20 C 0.5365(7) 0.6281(4) 0.6214(6)
H6 H 0.576717 0.622762 0.678961
C21 C 0.3621(7) 0.8792(4) 0.2585(7)
H7 H 0.409078 0.903883 0.251539
C22 C 0.1766(6) 0.7072(4) 0.1700(8)
C23 C 0.3251(7) 0.6827(5) 0.0809(8)
H8 H 0.263847 0.684398 0.040844
C24 C 0.2581(8) 0.4893(5) 0.2262(8)
H9 H 0.204565 0.469489 0.192134
C25 C 0.4714(8) 0.5863(4) 0.5829(6)
H10 H 0.468280 0.552830 0.614066
C26 C 0.3495(7) 0.8256(4) 0.2178(8)
H11 H 0.386418 0.815361 0.181422
C27 C 0.4098(8) 0.5939(4) 0.4970(7)
C28 C 0.2621(7) 0.5052(5) 0.3092(6)
H12 H 0.211402 0.496333 0.330919
C29 C 0.4791(10) 0.6878(5) 0.4914(8)
H13 H 0.482805 0.721517 0.461042
C30 C 0.0032(8) 0.7128(5) 0.1183(9)
C31 C 0.2761(9) 0.5243(6) 0.5690(8)
H15 H 0.267758 0.563131 0.578098
C32 C 0.4087(9) 0.6469(5) 0.4519(7)
H16 H 0.362727 0.654236 0.397866
C33 C 0.3342(9) 0.4489(5) 0.4979(9)
H17 H 0.364318 0.436571 0.457080
C34 C 0.2375(7) 0.8580(4) 0.3221(8)
H18 H 0.195885 0.869563 0.353141
C35 C 0.0946(7) 0.7390(5) 0.1330(9)
H19 H 0.099085 0.777170 0.117784
C36 C 0.3080(9) 0.4102(5) 0.5510(9)
H20 H 0.321055 0.371461 0.546187
C37 C 0.2324(8) 0.8033(5) 0.2888(8)
H21 H 0.194291 0.776337 0.305603
C38 C 0.0802(7) 0.6236(5) 0.1672(9)
H22 H 0.075815 0.584269 0.174868
C39 C 0.2481(10) 0.4846(6) 0.6212(8)
H23 H 0.219332 0.497077 0.662957
C40 C 0.1689(8) 0.6485(5) 0.1866(10)
H24 H 0.223619 0.626625 0.210692
C41 C 0.2621(8) 0.4275(6) 0.6124(8)
C42 C 0.2372(9) 0.3830(8) 0.6716(9)
N3 N 0.0323(14) 0.7283(9) 0.3705(12)
C44 C 0.097(2) 0.6812(12) 0.408(2)
H26 H 0.101265 0.656158 0.361171
H27 H 0.072182 0.660103 0.448836
H28 H 0.158729 0.696071 0.438878
C45 C 0.068(2) 0.7831(11) 0.411(2)
H29 H 0.066933 0.810677 0.365626
H30 H 0.132751 0.778542 0.448940
H31 H 0.028732 0.796376 0.445956
Zn5 Zn 0.24383(5) 0.30095(3) 0.80015(5)
O16 O 0.1721(5) 0.3410(4) 0.8991(5)
O23 O 0.1019(6) 0.4259(4) 0.8777(6)
C54 C 0.0981(7) 0.3709(5) 0.8819(6)
C55 C 0.0026(6) 0.3446(4) 0.8634(7)
H45 H 0.052161 0.265531 0.903606
O26 O 0.1099(13) 0.2442(9) 0.7316(12)
C88 C 0.0552(15) 0.2776(13) 0.6979(13)
H56 H 0.070210 0.314934 0.718293
Zn8 Zn 0.73448(5) 0.56124(3) 0.08721(5)
Zn11 Zn 0.26552(5) 0.43876(3) 0.91279(5)
Zn12 Zn 0.75617(5) 0.69905(3) 0.19985(5)
Zn15 Zn 0.75617(5) 0.80095(3) 0.69985(5)
Zn18_2 Zn 0.500000 1.000000 0.500000
O29 O 0.3528(5) 0.3758(3) 0.8622(6)
O33 O 0.6129(6) 0.4841(3) 0.1369(5)
O37 O 0.3391(7) 0.2225(4) 0.8011(5)
O39 O 0.3543(7) 0.2550(4) 0.9342(5)
Zn3_2 Zn 0.500000 0.500000 1.000000
H3 H 0.381590 0.643084 0.997800
O31 O 0.4590(6) 0.4051(3) 0.9857(5)
O32 O 0.6154(6) 0.4892(3) 0.9375(5)
O34 O 0.3871(6) 0.5159(3) 0.8631(5)
H34 H 0.618410 0.356916 0.002200
O3 O 0.8279(5) 0.6590(4) 0.1009(5)
O10 O 0.8981(6) 0.5741(4) 0.1223(6)
C9 C 0.9019(7) 0.6291(5) 0.1181(6)
C10 C 0.9974(6) 0.6554(4) 0.1366(7)
H14 H 0.947839 0.734469 0.096394
O13 O 0.8901(13) 0.7558(9) 0.2684(12)
C43 C 0.9448(15) 0.7224(13) 0.3021(13)
H25 H 0.929790 0.685066 0.281707
O18 O 0.6129(6) 0.0159(3) 0.6369(5)
O19 O 0.7311(6) 0.5522(4) 0.9434(5)
O20 O 0.3391(7) 0.2775(4) 0.3011(5)
O21 O 0.7643(6) 0.0257(4) 0.6392(7)
O22 O 0.3543(7) 0.2450(4) 0.4342(5)
N4 N 0.7334(6) 0.2668(4) 0.8112(7)
N5 N 0.6529(8) 0.4514(4) 0.5474(5)
C46 C 0.6681(7) 0.4983(4) 0.8110(6)
O24 O 0.7330(7) 0.6683(5) 0.3300(6)
C47 C 0.4378(6) 0.3776(3) 0.9141(7)
C48 C 0.5115(6) 0.3488(4) 0.8853(6)
C49 C 0.6724(7) 0.5144(4) 0.9034(6)
C50 C 0.6887(8) 0.0439(4) 0.6542(6)
C51 C 0.3781(8) 0.2784(4) 0.3860(7)
C52 C 0.4965(6) 0.3268(4) 0.7993(7)
H32 H 0.436672 0.330735 0.757477
C53 C 0.5889(7) 0.4699(4) 0.7581(6)
H33 H 0.537915 0.461867 0.779760
C56 C 0.6593(6) 0.2940(4) 0.8374(8)
C57 C 0.6581(8) 0.4650(4) 0.6363(6)
C58 C 0.7176(7) 0.2130(4) 0.7692(8)
C59 C 0.6050(7) 0.3429(5) 0.9446(7)
C60 C 0.5848(8) 0.4531(5) 0.6713(7)
H35 H 0.531322 0.433443 0.636773
O25 O 0.8131(7) 0.6015(6) 0.2800(8)
C61 C 0.6849(8) 0.4914(5) 0.4948(6)
C62 C 0.6954(6) 0.1044(4) 0.6908(6)
C63 C 0.5682(6) 0.2996(4) 0.7757(7)
H36 H 0.556434 0.284884 0.718592
C64 C 0.4563(8) 0.3215(4) 0.4239(6)
C65 C 0.4635(7) 0.3719(4) 0.3786(6)
H37 H 0.423283 0.377238 0.321039
C66 C 0.6379(7) 0.1208(4) 0.7415(7)
H38 H 0.590922 0.096117 0.748461
C67 C 0.8234(6) 0.2928(4) 0.8300(8)
C68 C 0.6749(7) 0.3173(5) 0.9191(8)
H39 H 0.736153 0.315602 0.959156
C69 C 0.7419(8) 0.5107(5) 0.7738(8)
H40 H 0.795435 0.530511 0.807866
C70 C 0.5286(8) 0.4137(4) 0.4171(6)
H41 H 0.531720 0.447170 0.385934
C71 C 0.6505(7) 0.1744(4) 0.7822(8)
H42 H 0.613582 0.184639 0.818578
C72 C 0.5902(8) 0.4061(4) 0.5030(7)
C73 C 0.7379(7) 0.4948(5) 0.6908(6)
H43 H 0.788598 0.503667 0.669081
C74 C 0.5209(10) 0.3122(5) 0.5086(8)
H44 H 0.517195 0.278483 0.538958
C75 C 0.9968(8) 0.2872(5) 0.8817(9)
C76 C 0.7239(9) 0.4757(6) 0.4310(8)
H46 H 0.732242 0.436869 0.421902
C77 C 0.5913(9) 0.3531(5) 0.5481(7)
H47 H 0.637273 0.345764 0.602134
C78 C 0.6658(9) 0.5511(5) 0.5021(9)
H48 H 0.635682 0.563429 0.542920
C79 C 0.7625(7) 0.1420(4) 0.6779(8)
H49 H 0.804115 0.130437 0.646859
C80 C 0.9054(7) 0.2610(5) 0.8670(9)
H50 H 0.900915 0.222830 0.882216
C81 C 0.6920(9) 0.5898(5) 0.4490(9)
H51 H 0.678945 0.628539 0.453813
C82 C 0.7676(8) 0.1967(5) 0.7112(8)
H52 H 0.805709 0.223663 0.694397
C83 C 0.9198(7) 0.3764(5) 0.8328(9)
H53 H 0.924185 0.415731 0.825132
C84 C 0.7519(10) 0.5154(6) 0.3788(8)
H54 H 0.780668 0.502923 0.337043
C85 C 0.8311(8) 0.3515(5) 0.8134(10)
H55 H 0.776381 0.373375 0.789308
C86 C 0.7379(8) 0.5725(6) 0.3876(8)
C87 C 0.7628(9) 0.6170(8) 0.3284(9)
N6 N 0.9677(14) 0.2717(9) 0.6295(12)
C89 C 0.903(2) 0.3188(12) 0.592(2)
H57 H 0.898735 0.343842 0.638829
H58 H 0.927818 0.339897 0.551164
H59 H 0.841271 0.303929 0.561122
C90 C 0.932(2) 0.2169(11) 0.589(2)
H60 H 0.933067 0.189323 0.634374
H61 H 0.867249 0.221458 0.551060
H62 H 0.971268 0.203624 0.554044
Zn13 Zn 0.24383(5) 0.19905(3) 0.30015(5)
O38 O 0.6609(7) 0.7775(4) 0.1989(5)
O40 O 0.6457(7) 0.7450(4) 0.0658(5)
Zn4 Zn 0.73448(5) 0.93876(3) 0.58721(5)
O30 O 0.6472(5) 0.8758(3) 0.6378(6)
O35 O 0.7311(6) 0.9478(4) 0.4434(5)
O42 O 0.8981(6) 0.9259(4) 0.6223(6)
O3_2 O 0.1721(5) 0.1590(4) 0.3991(5)
C9_2 C 0.0981(7) 0.1291(5) 0.3819(6)
C10_2 C 0.0026(6) 0.1554(4) 0.3634(7)
H14_2 H 0.052161 0.234469 0.403606
O13_2 O 0.1099(13) 0.2558(9) 0.2316(12)
C43_2 C 0.0552(15) 0.2224(13) 0.1979(13)
H25_2 H 0.070210 0.185066 0.218293
O24_2 O 0.2670(7) 0.1683(5) 0.1700(6)
O25_2 O 0.1869(7) 0.1015(6) 0.2200(8)
C81_2 C 0.3080(9) 0.0898(5) 0.0510(9)
H51_2 H 0.321055 0.128539 0.046187
C84_2 C 0.2481(10) 0.0154(6) 0.1212(8)
H54_2 H 0.219332 0.002923 0.162957
C86_2 C 0.2621(8) 0.0725(6) 0.1124(8)
C87_2 C 0.2372(9) 0.1170(8) 0.1716(9)
C49_2 C 0.3276(7) 0.0144(4) 0.5966(6)
C69_2 C 0.2581(8) 0.0107(5) 0.7262(8)
H40_2 H 0.204565 0.030511 0.692134
H43_2 H 0.211402 0.003667 0.830919
C78_2 C 0.3342(9) 0.0511(5) 0.9979(9)
H48_2 H 0.364318 0.063429 0.957080
C51_2 C 0.6219(8) 0.7784(4) 0.1140(7)
C61_2 C 0.3151(8) 0.9914(5) 0.0052(6)
C64_2 C 0.5437(8) 0.8215(4) 0.0761(6)
C65_2 C 0.5365(7) 0.8719(4) 0.1214(6)
H37_2 H 0.576717 0.877238 0.178961
C70_2 C 0.4714(8) 0.9137(4) 0.0829(6)
H41_2 H 0.468280 0.947170 0.114066
C76_2 C 0.2761(9) 0.9757(6) 0.0690(8)
H46_2 H 0.267758 0.936869 0.078098
O15 O 0.5410(6) 0.9051(3) 0.5143(5)
O17 O 0.3846(6) 0.9892(3) 0.5625(5)
O21_2 O 0.2357(6) 0.5257(4) 0.8608(7)
N4_2 N 0.2666(6) 0.7668(4) 0.6888(7)
N5_2 N 0.3471(8) 0.9514(4) 0.9526(5)
C46_2 C 0.3319(7) 0.9983(4) 0.6890(6)
C47_2 C 0.5622(6) 0.8776(3) 0.5859(7)
C48_2 C 0.4885(6) 0.8488(4) 0.6147(6)
C50_2 C 0.3113(8) 0.5439(4) 0.8458(6)
C52_2 C 0.5035(6) 0.8268(4) 0.7007(7)
H32_2 H 0.563328 0.830735 0.742523
C53_2 C 0.4111(7) 0.9699(4) 0.7419(6)
H33_2 H 0.462085 0.961867 0.720240
C56_2 C 0.3407(6) 0.7940(4) 0.6626(8)
C57_2 C 0.3419(8) 0.9650(4) 0.8637(6)
C58_2 C 0.2824(7) 0.7130(4) 0.7308(8)
C59_2 C 0.3950(7) 0.8429(5) 0.5554(7)
H34_2 H 0.381590 0.856916 0.497800
C60_2 C 0.4152(8) 0.9531(5) 0.8287(7)
H35_2 H 0.468678 0.933443 0.863227
C62_2 C 0.3046(6) 0.6044(4) 0.8092(6)
C63_2 C 0.4318(6) 0.7996(4) 0.7243(7)
H36_2 H 0.443566 0.784884 0.781408
C66_2 C 0.3621(7) 0.6208(4) 0.7585(7)
H38_2 H 0.409078 0.596117 0.751539
C67_2 C 0.1766(6) 0.7928(4) 0.6700(8)
C68_2 C 0.3251(7) 0.8173(5) 0.5809(8)
H39_2 H 0.263847 0.815602 0.540844
C71_2 C 0.3495(7) 0.6744(4) 0.7178(8)
H42_2 H 0.386418 0.684639 0.681422
C72_2 C 0.4098(8) 0.9061(4) 0.9970(7)
C73_2 C 0.2621(7) 0.9948(5) 0.8092(6)
C74_2 C 0.4791(10) 0.8122(5) 0.9914(8)
H44_2 H 0.482805 0.778483 0.961042
C75_2 C 0.0032(8) 0.7872(5) 0.6183(9)
C77_2 C 0.4087(9) 0.8531(5) 0.9519(7)
H47_2 H 0.362727 0.845764 0.897866
C79_2 C 0.2375(7) 0.6420(4) 0.8221(8)
H49_2 H 0.195885 0.630437 0.853141
C80_2 C 0.0946(7) 0.7610(5) 0.6330(9)
H50_2 H 0.099085 0.722830 0.617784
C82_2 C 0.2324(8) 0.6967(5) 0.7888(8)
H52_2 H 0.194291 0.723663 0.805603
C83_2 C 0.0802(7) 0.8764(5) 0.6672(9)
H53_2 H 0.075815 0.915731 0.674868
C85_2 C 0.1689(8) 0.8515(5) 0.6866(10)
H55_2 H 0.223619 0.873375 0.710692
N6_2 N 0.0323(14) 0.7717(9) 0.8705(12)
C89_2 C 0.097(2) 0.8188(12) 0.908(2)
H57_2 H 0.101265 0.843842 0.861171
H58_2 H 0.072182 0.839897 0.948836
H59_2 H 0.158729 0.803929 0.938878
C90_2 C 0.068(2) 0.7169(11) 0.911(2)
H60_2 H 0.066933 0.689323 0.865626
H61_2 H 0.132751 0.721458 0.948940
H62_2 H 0.028732 0.703624 0.945956
O2_2 O 0.4590(6) 0.0949(3) 0.4857(5)
O4_2 O 0.6154(6) 0.0108(3) 0.4375(5)
O8_2 O 0.7643(6) 0.4743(4) 0.1392(7)
N1_2 N 0.7334(6) 0.2332(4) 0.3112(7)
N2_2 N 0.6529(8) 0.0486(4) 0.0474(5)
C1_2 C 0.6681(7) 0.0017(4) 0.3110(6)
C2_2 C 0.4378(6) 0.1224(3) 0.4141(7)
C3_2 C 0.5115(6) 0.1512(4) 0.3853(6)
C5_2 C 0.6887(8) 0.4561(4) 0.1542(6)
C7_2 C 0.4965(6) 0.1732(4) 0.2993(7)
H1_2 H 0.436672 0.169265 0.257477
C8_2 C 0.5889(7) 0.0301(4) 0.2581(6)
H2_2 H 0.537915 0.038133 0.279760
C11_2 C 0.6593(6) 0.2060(4) 0.3374(8)
C12_2 C 0.6581(8) 0.0350(4) 0.1363(6)
C13_2 C 0.7176(7) 0.2870(4) 0.2692(8)
C14_2 C 0.6050(7) 0.1571(5) 0.4446(7)
H3_2 H 0.618410 0.143084 0.502200
C15_2 C 0.5848(8) 0.0469(5) 0.1713(7)
H4_2 H 0.531322 0.066557 0.136773
C17_2 C 0.6954(6) 0.3956(4) 0.1908(6)
C18_2 C 0.5682(6) 0.2004(4) 0.2757(7)
H5_2 H 0.556434 0.215116 0.218592
C21_2 C 0.6379(7) 0.3792(4) 0.2415(7)
H7_2 H 0.590922 0.403883 0.248461
C22_2 C 0.8234(6) 0.2072(4) 0.3300(8)
C23_2 C 0.6749(7) 0.1827(5) 0.4191(8)
H8_2 H 0.736153 0.184398 0.459156
C26_2 C 0.6505(7) 0.3256(4) 0.2822(8)
H11_2 H 0.613582 0.315361 0.318578
C27_2 C 0.5902(8) 0.0939(4) 0.0030(7)
C28_2 C 0.7379(7) 0.0052(5) 0.1908(6)
C29_2 C 0.5209(10) 0.1878(5) 0.0086(8)
H13_2 H 0.517195 0.221517 0.038958
C30_2 C 0.9968(8) 0.2128(5) 0.3817(9)
C32_2 C 0.5913(9) 0.1469(5) 0.0481(7)
H16_2 H 0.637273 0.154236 0.102134
C34_2 C 0.7625(7) 0.3580(4) 0.1779(8)
H18_2 H 0.804115 0.369563 0.146859
C35_2 C 0.9054(7) 0.2390(5) 0.3670(9)
H19_2 H 0.900915 0.277170 0.382216
C37_2 C 0.7676(8) 0.3033(5) 0.2112(8)
H21_2 H 0.805709 0.276337 0.194397
C38_2 C 0.9198(7) 0.1236(5) 0.3328(9)
H22_2 H 0.924185 0.084269 0.325132
C40_2 C 0.8311(8) 0.1485(5) 0.3134(10)
H24_2 H 0.776381 0.126625 0.289308
N3_2 N 0.9677(14) 0.2283(9) 0.1295(12)
C44_2 C 0.903(2) 0.1812(12) 0.092(2)
H26_2 H 0.898735 0.156158 0.138829
H27_2 H 0.927818 0.160103 0.051164
H28_2 H 0.841271 0.196071 0.061122
C45_2 C 0.932(2) 0.2831(11) 0.089(2)
H29_2 H 0.933067 0.310677 0.134374
H30_2 H 0.867249 0.278542 0.051060
H31_2 H 0.971268 0.296376 0.054044
C6_2 C 0.3781(8) 0.2216(4) 0.8860(7)
C16_2 C 0.6849(8) 0.0086(5) 0.9948(6)
C19_2 C 0.4563(8) 0.1785(4) 0.9239(6)
C20_2 C 0.4635(7) 0.1281(4) 0.8786(6)
H6_2 H 0.423283 0.122762 0.821039
C25_2 C 0.5286(8) 0.0863(4) 0.9171(6)
H10_2 H 0.531720 0.052830 0.885934
C31_2 C 0.7239(9) 0.0243(6) 0.9310(8)
H15_2 H 0.732242 0.063131 0.921902
C4_2 C 0.6724(7) 0.9856(4) 0.4034(6)
C24_2 C 0.7419(8) 0.9893(5) 0.2738(8)
H9_2 H 0.795435 0.969489 0.307866
H12_2 H 0.788598 0.996333 0.169081
C33_2 C 0.6658(9) 0.9489(5) 0.0021(9)
H17_2 H 0.635682 0.936571 0.042920
O11_2 O 0.7330(7) 0.8317(5) 0.8300(6)
O12_2 O 0.8131(7) 0.8985(6) 0.7800(8)
C36_2 C 0.6920(9) 0.9102(5) 0.9490(9)
H20_2 H 0.678945 0.871461 0.953813
C39_2 C 0.7519(10) 0.9846(6) 0.8788(8)
H23_2 H 0.780668 0.997077 0.837043
C41_2 C 0.7379(8) 0.9275(6) 0.8876(8)
C42_2 C 0.7628(9) 0.8830(8) 0.8284(9)
O16_2 O 0.8279(5) 0.8410(4) 0.6009(5)
C54_2 C 0.9019(7) 0.8709(5) 0.6181(6)
C55_2 C 0.9974(6) 0.8446(4) 0.6366(7)
H45_2 H 0.947839 0.765531 0.596394
O26_2 O 0.8901(13) 0.7442(9) 0.7684(12)
C88_2 C 0.9448(15) 0.7776(13) 0.8021(13)
H56_2 H 0.929790 0.814934 0.781707
loop_
_geom_bond_atom_site_label_1
_geom_bond_atom_site_label_2
_geom_bond_site_symmetry_1
_geom_bond_site_symmetry_2
O28 Zn1 1_555 1_555
O36 Zn1 1_555 1_555
O41 Zn1 1_555 1_555
Zn3 O2 1_555 1_555
O1 C2 1_555 1_555
O2 C2 1_555 1_555
O4 Zn3 1_555 1_555
O5 C5 1_555 1_555
O6 C4 1_555 1_555
O7 C6 1_555 1_555
O8 C5 1_555 1_555
O9 C6 1_555 1_555
N1 C11 1_555 1_555
N2 C12 1_555 1_555
C1 C4 1_555 1_555
O11 C42 1_555 1_555
C2 C3 1_555 1_555
C3 C7 1_555 1_555
C4 O4 1_555 1_555
C5 C17 1_555 1_555
C6 C19 1_555 1_555
C7 H1 1_555 1_555
C8 C1 1_555 1_555
H2 C8 1_555 1_555
C11 C18 1_555 1_555
C12 C15 1_555 1_555
C13 N1 1_555 1_555
C14 C3 1_555 1_555
C15 C8 1_555 1_555
H4 C15 1_555 1_555
O12 C42 1_555 1_555
C16 N2 1_555 1_555
C17 C21 1_555 1_555
C18 C7 1_555 1_555
H5 C18 1_555 1_555
C19 C20 1_555 1_555
C20 H6 1_555 1_555
C21 H7 1_555 1_555
C22 N1 1_555 1_555
C23 C11 1_555 1_555
H8 C23 1_555 1_555
C24 C1 1_555 1_555
H9 C24 1_555 1_555
C25 C20 1_555 1_555
H10 C25 1_555 1_555
C26 C13 1_555 1_555
H11 C26 1_555 1_555
C27 N2 1_555 1_555
C28 C12 1_555 1_555
H12 C28 1_555 1_555
C29 C19 1_555 1_555
H13 C29 1_555 1_555
C31 C16 1_555 1_555
H15 C31 1_555 1_555
C32 C27 1_555 1_555
H16 C32 1_555 1_555
C33 C16 1_555 1_555
H17 C33 1_555 1_555
C34 C17 1_555 1_555
H18 C34 1_555 1_555
C35 C22 1_555 1_555
H19 C35 1_555 1_555
C36 C33 1_555 1_555
H20 C36 1_555 1_555
C37 C13 1_555 1_555
H21 C37 1_555 1_555
H22 C38 1_555 1_555
C39 C31 1_555 1_555
H23 C39 1_555 1_555
C40 C22 1_555 1_555
H24 C40 1_555 1_555
C41 C36 1_555 1_555
C42 C41 1_555 1_555
C44 N3 1_555 1_555
H26 C44 1_555 1_555
H27 C44 1_555 1_555
H28 C44 1_555 1_555
C45 N3 1_555 1_555
H29 C45 1_555 1_555
H30 C45 1_555 1_555
H31 C45 1_555 1_555
Zn5 O11 1_555 1_555
O16 Zn5 1_555 1_555
O23 C54 1_555 1_555
C54 O16 1_555 1_555
C55 C54 1_555 1_555
O26 Zn5 1_555 1_555
C88 O26 1_555 1_555
H56 C88 1_555 1_555
Zn8 O1 1_555 1_555
Zn11 O23 1_555 1_555
Zn12 O1 1_555 1_555
Zn15 O7 1_555 1_555
Zn18_2 O5 1_555 1_555
O29 Zn5 1_555 1_555
O33 Zn3 1_555 1_555
O37 Zn5 1_555 1_555
O39 Zn5 1_555 1_555
O9 Zn15 1_555 1_555
C14 C23 1_555 1_555
C21 C26 1_555 1_555
C24 C28 1_555 1_555
C25 C27 1_555 1_555
C29 C32 1_555 1_555
C30 C35 1_555 1_555
C34 C37 1_555 1_555
C38 C40 1_555 1_555
C39 C41 1_555 1_555
Zn11 O29 1_555 1_555
O31 Zn3_2 1_555 1_555
O32 Zn3_2 1_555 1_555
O34 Zn3_2 1_555 1_555
Zn12 O3 1_555 1_555
O3 C9 1_555 1_555
O10 C9 1_555 1_555
C9 C10 1_555 1_555
O13 Zn12 1_555 1_555
C43 O13 1_555 1_555
H25 C43 1_555 1_555
O29 C47 1_555 1_555
O31 C47 1_555 1_555
O32 C49 1_555 1_555
O18 C50 1_555 1_555
O19 C49 1_555 1_555
O20 C51 1_555 1_555
O21 C50 1_555 1_555
O22 C51 1_555 1_555
N4 C56 1_555 1_555
N5 C57 1_555 1_555
C46 C49 1_555 1_555
O24 Zn12 1_555 1_555
C47 C48 1_555 1_555
C48 C52 1_555 1_555
C50 C62 1_555 1_555
C51 C64 1_555 1_555
C52 H32 1_555 1_555
C53 C46 1_555 1_555
H33 C53 1_555 1_555
C56 C63 1_555 1_555
C57 C60 1_555 1_555
C58 N4 1_555 1_555
C59 C48 1_555 1_555
C60 C53 1_555 1_555
H35 C60 1_555 1_555
O25 C87 1_555 1_555
C61 N5 1_555 1_555
C62 C66 1_555 1_555
C63 C52 1_555 1_555
H36 C63 1_555 1_555
C64 C65 1_555 1_555
C65 H37 1_555 1_555
C66 H38 1_555 1_555
C67 N4 1_555 1_555
C68 C56 1_555 1_555
H39 C68 1_555 1_555
C69 C46 1_555 1_555
H40 C69 1_555 1_555
C70 C65 1_555 1_555
H41 C70 1_555 1_555
C71 C58 1_555 1_555
H42 C71 1_555 1_555
C72 N5 1_555 1_555
C73 C57 1_555 1_555
H43 C73 1_555 1_555
C74 C64 1_555 1_555
H44 C74 1_555 1_555
C76 C61 1_555 1_555
H46 C76 1_555 1_555
C77 C72 1_555 1_555
H47 C77 1_555 1_555
C78 C61 1_555 1_555
H48 C78 1_555 1_555
C79 C62 1_555 1_555
H49 C79 1_555 1_555
C80 C67 1_555 1_555
H50 C80 1_555 1_555
C81 C78 1_555 1_555
H51 C81 1_555 1_555
C82 C58 1_555 1_555
H52 C82 1_555 1_555
H53 C83 1_555 1_555
C84 C76 1_555 1_555
H54 C84 1_555 1_555
C85 C67 1_555 1_555
H55 C85 1_555 1_555
C86 C81 1_555 1_555
C87 O24 1_555 1_555
C89 N6 1_555 1_555
H57 C89 1_555 1_555
H58 C89 1_555 1_555
H59 C89 1_555 1_555
C90 N6 1_555 1_555
H60 C90 1_555 1_555
H61 C90 1_555 1_555
H62 C90 1_555 1_555
Zn8 O10 1_555 1_555
Zn13 O20 1_555 1_555
Zn18 O18 1_555 1_555
O38 Zn12 1_555 1_555
O40 Zn12 1_555 1_555
O22 Zn13 1_555 1_555
C59 C68 1_555 1_555
C66 C71 1_555 1_555
C69 C73 1_555 1_555
C70 C72 1_555 1_555
C74 C77 1_555 1_555
C75 C80 1_555 1_555
C79 C82 1_555 1_555
C83 C85 1_555 1_555
C84 C86 1_555 1_555
C86 C87 1_555 1_555
O30 Zn4 1_555 1_555
O35 Zn4 1_555 1_555
O42 Zn4 1_555 1_555
Zn13 O3_2 1_555 1_555
O3_2 C9_2 1_555 1_555
O41 C9_2 1_555 1_555
C9_2 C10_2 1_555 1_555
O13_2 Zn13 1_555 1_555
C43_2 O13_2 1_555 1_555
H25_2 C43_2 1_555 1_555
O24_2 Zn13 1_555 1_555
O25_2 C87_2 1_555 1_555
H51_2 C81_2 1_555 1_555
H54_2 C84_2 1_555 1_555
C86_2 C81_2 1_555 1_555
C87_2 O24_2 1_555 1_555
O28 Zn13 1_555 1_555
C84_2 C86_2 1_555 1_555
C86_2 C87_2 1_555 1_555
O36 C49_2 1_555 1_555
H40_2 C69_2 1_555 1_555
H48_2 C78_2 1_555 1_555
O38 C51_2 1_555 1_555
O40 C51_2 1_555 1_555
C51_2 C64_2 1_555 1_555
C64_2 C65_2 1_555 1_555
C65_2 H37_2 1_555 1_555
C70_2 C65_2 1_555 1_555
H41_2 C70_2 1_555 1_555
C76_2 C61_2 1_555 1_555
H46_2 C76_2 1_555 1_555
Zn11 O21_2 1_555 1_555
O30 C47_2 1_555 1_555
O15 C47_2 1_555 1_555
O34 C50_2 1_555 1_555
O21_2 C50_2 1_555 1_555
N4_2 C56_2 1_555 1_555
N5_2 C57_2 1_555 1_555
C47_2 C48_2 1_555 1_555
C48_2 C52_2 1_555 1_555
C50_2 C62_2 1_555 1_555
C52_2 H32_2 1_555 1_555
C53_2 C46_2 1_555 1_555
H33_2 C53_2 1_555 1_555
C56_2 C63_2 1_555 1_555
C57_2 C60_2 1_555 1_555
C58_2 N4_2 1_555 1_555
C59_2 C48_2 1_555 1_555
H34_2 C59_2 1_555 1_555
C60_2 C53_2 1_555 1_555
H35_2 C60_2 1_555 1_555
C62_2 C66_2 1_555 1_555
C63_2 C52_2 1_555 1_555
H36_2 C63_2 1_555 1_555
C66_2 H38_2 1_555 1_555
C67_2 N4_2 1_555 1_555
C68_2 C56_2 1_555 1_555
H39_2 C68_2 1_555 1_555
C71_2 C58_2 1_555 1_555
H42_2 C71_2 1_555 1_555
C72_2 N5_2 1_555 1_555
C73_2 C57_2 1_555 1_555
H44_2 C74_2 1_555 1_555
C77_2 C72_2 1_555 1_555
H47_2 C77_2 1_555 1_555
C79_2 C62_2 1_555 1_555
H49_2 C79_2 1_555 1_555
C80_2 C67_2 1_555 1_555
H50_2 C80_2 1_555 1_555
C82_2 C58_2 1_555 1_555
H52_2 C82_2 1_555 1_555
H53_2 C83_2 1_555 1_555
C85_2 C67_2 1_555 1_555
H55_2 C85_2 1_555 1_555
C89_2 N6_2 1_555 1_555
H57_2 C89_2 1_555 1_555
H58_2 C89_2 1_555 1_555
H59_2 C89_2 1_555 1_555
C90_2 N6_2 1_555 1_555
H60_2 C90_2 1_555 1_555
H61_2 C90_2 1_555 1_555
H62_2 C90_2 1_555 1_555
Zn15 O30 1_555 1_555
Zn18_2 O15 1_555 1_555
O17 Zn18_2 1_555 1_555
C59_2 C68_2 1_555 1_555
C66_2 C71_2 1_555 1_555
C74_2 C77_2 1_555 1_555
C75_2 C80_2 1_555 1_555
C79_2 C82_2 1_555 1_555
C83_2 C85_2 1_555 1_555
Zn8 O8_2 1_555 1_555
Zn18 O2_2 1_555 1_555
O28 C2_2 1_555 1_555
O2_2 C2_2 1_555 1_555
O4_2 Zn18 1_555 1_555
O33 C5_2 1_555 1_555
O8_2 C5_2 1_555 1_555
N1_2 C11_2 1_555 1_555
N2_2 C12_2 1_555 1_555
C2_2 C3_2 1_555 1_555
C3_2 C7_2 1_555 1_555
C5_2 C17_2 1_555 1_555
C7_2 H1_2 1_555 1_555
C8_2 C1_2 1_555 1_555
H2_2 C8_2 1_555 1_555
C11_2 C18_2 1_555 1_555
C12_2 C15_2 1_555 1_555
C13_2 N1_2 1_555 1_555
C14_2 C3_2 1_555 1_555
H3_2 C14_2 1_555 1_555
C15_2 C8_2 1_555 1_555
H4_2 C15_2 1_555 1_555
C17_2 C21_2 1_555 1_555
C18_2 C7_2 1_555 1_555
H5_2 C18_2 1_555 1_555
C21_2 H7_2 1_555 1_555
C22_2 N1_2 1_555 1_555
C23_2 C11_2 1_555 1_555
H8_2 C23_2 1_555 1_555
C26_2 C13_2 1_555 1_555
H11_2 C26_2 1_555 1_555
C27_2 N2_2 1_555 1_555
C28_2 C12_2 1_555 1_555
H13_2 C29_2 1_555 1_555
C32_2 C27_2 1_555 1_555
H16_2 C32_2 1_555 1_555
C34_2 C17_2 1_555 1_555
H18_2 C34_2 1_555 1_555
C35_2 C22_2 1_555 1_555
H19_2 C35_2 1_555 1_555
C37_2 C13_2 1_555 1_555
H21_2 C37_2 1_555 1_555
H22_2 C38_2 1_555 1_555
C40_2 C22_2 1_555 1_555
H24_2 C40_2 1_555 1_555
C44_2 N3_2 1_555 1_555
H26_2 C44_2 1_555 1_555
H27_2 C44_2 1_555 1_555
H28_2 C44_2 1_555 1_555
C45_2 N3_2 1_555 1_555
H29_2 C45_2 1_555 1_555
H30_2 C45_2 1_555 1_555
H31_2 C45_2 1_555 1_555
C14_2 C23_2 1_555 1_555
C21_2 C26_2 1_555 1_555
C29_2 C32_2 1_555 1_555
C30_2 C35_2 1_555 1_555
C34_2 C37_2 1_555 1_555
C38_2 C40_2 1_555 1_555
O37 C6_2 1_555 1_555
O39 C6_2 1_555 1_555
C6_2 C19_2 1_555 1_555
C19_2 C20_2 1_555 1_555
C20_2 H6_2 1_555 1_555
C25_2 C20_2 1_555 1_555
H10_2 C25_2 1_555 1_555
C31_2 C16_2 1_555 1_555
H15_2 C31_2 1_555 1_555
O35 C4_2 1_555 1_555
H9_2 C24_2 1_555 1_555
H17_2 C33_2 1_555 1_555
O11_2 C42_2 1_555 1_555
O12_2 C42_2 1_555 1_555
H20_2 C36_2 1_555 1_555
H23_2 C39_2 1_555 1_555
C41_2 C36_2 1_555 1_555
C42_2 C41_2 1_555 1_555
Zn15 O11_2 1_555 1_555
O16_2 Zn15 1_555 1_555
O42 C54_2 1_555 1_555
C54_2 O16_2 1_555 1_555
C55_2 C54_2 1_555 1_555
O26_2 Zn15 1_555 1_555
C88_2 O26_2 1_555 1_555
H56_2 C88_2 1_555 1_555
C39_2 C41_2 1_555 1_555

#END
