
###############################################################################
#
# This file contains modified crystal structure data generated from the
# MOF subset of the Cambridge Structural Database (CSD) v542 
# hosted by the Cambridge Crystallographic Data Centre (CCDC).
#
# This work is licensed under the Creative Commons
# Attribution-NonCommercial-ShareAlike 4.0 International License.
# To view a copy of this license, visit
# http://creativecommons.org/licenses/by-nc-sa/4.0/
# or send a letter to
# Creative Commons, PO Box 1866, Mountain View, CA 94042, USA.
#
# CIF created using the CSD Python API on 22 February 2021
# The structure has been converted into the P1 space group
# The structure has a 3D framework
# The original CSD entry CITVUZ is in the rhombohedral crystal system
# The framework has been calculated to contain at least 10.0% void space
# The void calculation uses a probe of radius 1.32A, grid spacing 0.4
#
###############################################################################

data_CITVUZ
_chemical_formula_moiety         '(C270 H198 Cu27 O144)n'
_symmetry_cell_setting           triclinic
_symmetry_space_group_name_H-M   'P 1'
_symmetry_Int_Tables_number      1
_space_group_name_Hall           'P 1'
loop_
_symmetry_equiv_pos_site_id
_symmetry_equiv_pos_as_xyz
1 x,y,z
_cell_length_a                   32.937(3)
_cell_length_b                   32.937(3)
_cell_length_c                   13.5220(15)
_cell_angle_alpha                90
_cell_angle_beta                 90
_cell_angle_gamma                120
_cell_volume                     12704
loop_
_atom_site_label
_atom_site_type_symbol
_atom_site_fract_x
_atom_site_fract_y
_atom_site_fract_z
O7 O 0.3433(2) 0.13461(19) 0.5415(5)
O8 O 0.4170(2) 0.1544(3) 0.5339(8)
C1 C 0.3928(3) 0.0400(3) 0.3732(7)
H5 H 0.417452 0.034973 0.358375
C10 C 0.3505(3) 0.0104(3) 0.3453(7)
C11 C 0.3138(3) 0.0181(3) 0.3579(6)
C12 C 0.3213(3) 0.0586(3) 0.4102(6)
H10 H 0.296765 0.064495 0.419501
C13 C 0.3642(3) 0.0884(3) 0.4461(6)
C14 C 0.3753(3) 0.1297(3) 0.5144(7)
C15 C 0.4004(3) 0.0787(3) 0.4249(9)
H11 H 0.430530 0.099517 0.446938
Cu5 Cu 0.333333 0.166666 0.666666
Cu6 Cu 0.500000 0.000001 -0.000000
Cu9 Cu 0.45333(6) 0.21098(4) 0.61465(10)
Cu6_2 Cu 0.500000 0.000001 1.000000
Cu7 Cu -0.000001 0.500000 -0.000000
Cu1 Cu 0.166667 0.833333 0.333333
Cu2 Cu 0.21098(4) 0.75765(4) 0.38535(10)
O1 O 0.23001(16) 0.83079(17) 0.3591(4)
O2 O 0.2507(3) 0.7794(4) 0.5179(6)
O3 O 0.27241(18) 0.80206(18) 0.3032(5)
O4 O 0.2145(3) 0.6974(3) 0.3887(10)
O5 O 0.4024(2) 0.8950(2) 0.0753(7)
O6 O 0.44287(18) 0.97207(18) 0.0931(4)
C2 C 0.2669(2) 0.8362(3) 0.3145(6)
C3 C 0.3032(2) 0.8830(3) 0.2802(6)
C4 C 0.3373(2) 0.8855(3) 0.2164(6)
H6 H 0.336109 0.858345 0.193308
C5 C 0.3736(3) 0.9295(3) 0.1872(7)
C6 C 0.4101(3) 0.9327(3) 0.1147(6)
C7 C 0.3775(3) 0.9695(2) 0.2317(6)
H7 H 0.403556 0.998507 0.217913
C8 C 0.3440(3) 0.9671(3) 0.2953(6)
C9 C 0.3063(2) 0.9236(3) 0.3196(6)
H8 H 0.283107 0.921525 0.362061
H9 H 0.284379 0.997173 0.332655
O15 O 0.13461(19) 0.79131(28) 0.4585(5)
O16 O 0.1544(3) 0.7374(4) 0.4661(8)
C16 C 0.0400(3) 0.6472(4) 0.6268(7)
H16 H 0.034973 0.617521 0.641625
C25 C 0.0104(3) 0.6599(4) 0.6547(7)
C26 C 0.0181(3) 0.7043(4) 0.6421(6)
C27 C 0.0586(3) 0.7373(4) 0.5898(6)
H21 H 0.064495 0.767730 0.580499
C28 C 0.0884(3) 0.7242(4) 0.5539(6)
C29 C 0.1297(3) 0.7544(4) 0.4856(7)
C30 C 0.0787(3) 0.6783(4) 0.5751(9)
H22 H 0.099517 0.668987 0.553062
Cu6_3 Cu 0.500000 1.000001 -0.000000
Cu7_2 Cu -0.000001 0.500000 1.000000
O17 O 0.10332(16) 0.83588(17) 0.3076(4)
O19 O 0.1741(3) 0.7357(2) 0.2580(7)
O20 O 0.19587(25) 0.89046(18) 0.4264(4)
O21 O 0.13747(25) 0.77620(18) 0.2402(4)
O22 O 0.19872(19) 0.87536(28) 0.2082(5)
Cu6_4 Cu 0.500000 1.000001 1.000000
Cu10 Cu 0.42432(4) 0.88000(6) 0.94798(10)
Cu7_3 Cu 0.999999 0.500000 -0.000000
Cu8 Cu 0.88000(6) 0.45569(4) 0.05202(10)
Cu3 Cu 0.75765(4) 0.54667(6) 0.61465(10)
O9 O 0.83079(17) 0.60078(23) 0.6409(4)
O10 O 0.7794(4) 0.5287(5) 0.4821(6)
O11 O 0.80206(18) 0.52965(25) 0.6968(5)
O12 O 0.6974(3) 0.4829(4) 0.6113(10)
O13 O 0.8950(2) 0.4926(3) 0.9247(7)
O14 O 0.97207(18) 0.52920(25) 0.9069(4)
C17 C 0.8362(3) 0.5693(4) 0.6855(6)
C18 C 0.8830(3) 0.5798(4) 0.7198(6)
C19 C 0.8855(3) 0.5482(4) 0.7836(6)
H17 H 0.858345 0.522236 0.806692
C20 C 0.9295(3) 0.5559(4) 0.8128(7)
C21 C 0.9327(3) 0.5226(4) 0.8853(6)
C22 C 0.9695(2) 0.5920(4) 0.7683(6)
H18 H 0.998507 0.594951 0.782087
C23 C 0.9671(3) 0.6231(4) 0.7047(6)
C24 C 0.9236(3) 0.6173(4) 0.6804(6)
H19 H 0.921525 0.638418 0.637939
H20 H 0.997173 0.712794 0.667345
Cu4 Cu 0.833334 0.666667 0.666666
Cu7_4 Cu 0.999999 0.500000 1.000000
O18 O 0.7357(2) 0.5617(2) 0.7420(7)
O23 O 0.7374(4) 0.5830(2) 0.5339(8)
Cu7_5 Cu 0.500000 0.500000 -0.000000
Cu8_2 Cu 0.54431(4) 0.42432(7) 0.05202(10)
Cu1_2 Cu 0.166667 0.333334 0.333333
Cu2_2 Cu 0.24235(4) 0.45333(6) 0.38535(10)
O1_2 O 0.16921(17) 0.39922(23) 0.3591(4)
O2_2 O 0.2206(4) 0.4713(5) 0.5179(6)
O3_2 O 0.19794(18) 0.47035(25) 0.3032(5)
O4_2 O 0.3026(3) 0.5171(4) 0.3887(10)
O5_2 O 0.1050(2) 0.5074(3) 0.0753(7)
O6_2 O 0.02793(18) 0.47080(25) 0.0931(4)
C2_2 C 0.1638(3) 0.4307(4) 0.3145(6)
C3_2 C 0.1170(3) 0.4202(4) 0.2802(6)
C4_2 C 0.1145(3) 0.4518(4) 0.2164(6)
H6_2 H 0.141655 0.477764 0.193308
C5_2 C 0.0705(3) 0.4441(4) 0.1872(7)
C6_2 C 0.0673(3) 0.4774(4) 0.1147(6)
C7_2 C 0.0305(2) 0.4080(4) 0.2317(6)
H7_2 H 0.001493 0.405049 0.217913
C8_2 C 0.0329(3) 0.3769(4) 0.2953(6)
C9_2 C 0.0764(3) 0.3827(4) 0.3196(6)
H8_2 H 0.078475 0.361582 0.362061
H9_2 H 0.002827 0.287206 0.332655
O9_2 O 0.39922(23) 0.23001(29) 0.6409(4)
O10_2 O 0.4713(5) 0.2507(6) 0.4821(6)
O11_2 O 0.47035(25) 0.27241(31) 0.6968(5)
O12_2 O 0.5171(4) 0.2145(5) 0.6113(10)
O13_2 O 0.5074(3) 0.4024(4) 0.9247(7)
O14_2 O 0.47080(25) 0.44287(31) 0.9069(4)
O15_2 O 0.20869(28) 0.34330(34) 0.4585(5)
O16_2 O 0.2626(4) 0.4170(5) 0.4661(8)
C16_2 C 0.3528(4) 0.3928(5) 0.6268(7)
H16_2 H 0.382479 0.417452 0.641625
C17_2 C 0.4307(4) 0.2669(5) 0.6855(6)
C18_2 C 0.4202(4) 0.3032(5) 0.7198(6)
C19_2 C 0.4518(4) 0.3373(5) 0.7836(6)
H17_2 H 0.477764 0.336109 0.806692
C20_2 C 0.4441(4) 0.3736(5) 0.8128(7)
C21_2 C 0.4774(4) 0.4101(5) 0.8853(6)
C22_2 C 0.4080(4) 0.3775(4) 0.7683(6)
H18_2 H 0.405049 0.403556 0.782087
C23_2 C 0.3769(4) 0.3440(5) 0.7047(6)
C24_2 C 0.3827(4) 0.3063(5) 0.6804(6)
H19_2 H 0.361582 0.283107 0.637939
C25_2 C 0.3401(4) 0.3505(5) 0.6547(7)
C26_2 C 0.2957(4) 0.3138(5) 0.6421(6)
H20_2 H 0.287206 0.284379 0.667345
C27_2 C 0.2627(4) 0.3213(5) 0.5898(6)
H21_2 H 0.232270 0.296765 0.580499
C28_2 C 0.2758(4) 0.3642(5) 0.5539(6)
C29_2 C 0.2456(4) 0.3753(5) 0.4856(7)
C30_2 C 0.3217(4) 0.4004(5) 0.5751(9)
H22_2 H 0.331013 0.430530 0.553062
Cu7_6 Cu 0.500000 0.500000 1.000000
O17_2 O 0.16412(17) 0.26745(23) 0.3076(4)
O18_2 O 0.4383(2) 0.1741(3) 0.7420(7)
O19_2 O 0.2643(2) 0.4383(4) 0.2580(7)
O20_2 O 0.10954(18) 0.30540(31) 0.4264(4)
O21_2 O 0.22380(18) 0.36126(31) 0.2402(4)
O22_2 O 0.12464(28) 0.32337(34) 0.2082(5)
Cu10_2 Cu 0.12000(6) 0.54431(7) 0.94798(10)
O7_2 O 0.86539(19) 0.20869(28) 0.5415(5)
O8_2 O 0.8456(3) 0.2626(4) 0.5339(8)
C1_2 C 0.9600(3) 0.3528(4) 0.3732(7)
H5_2 H 0.965027 0.382479 0.358375
C10_2 C 0.9896(3) 0.3401(4) 0.3453(7)
C11_2 C 0.9819(3) 0.2957(4) 0.3579(6)
C12_2 C 0.9414(3) 0.2627(4) 0.4102(6)
H10_2 H 0.935505 0.232270 0.419501
C13_2 C 0.9116(3) 0.2758(4) 0.4461(6)
C14_2 C 0.8703(3) 0.2456(4) 0.5144(7)
C15_2 C 0.9213(3) 0.3217(4) 0.4249(9)
H11_2 H 0.900483 0.331013 0.446938
Cu5_2 Cu 0.833334 0.166666 0.666666
Cu9_2 Cu 0.78902(4) 0.24235(7) 0.61465(10)
Cu8_3 Cu 0.57568(7) 0.12000(6) 0.05202(10)
O9_3 O 0.76999(29) 0.16921(17) 0.6409(4)
O10_3 O 0.7493(6) 0.2206(4) 0.4821(6)
O11_3 O 0.72759(31) 0.19794(18) 0.6968(5)
O12_3 O 0.7855(5) 0.3026(3) 0.6113(10)
O13_3 O 0.5976(4) 0.1050(2) 0.9247(7)
O14_3 O 0.55713(31) 0.02793(18) 0.9069(4)
C17_3 C 0.7331(5) 0.1638(3) 0.6855(6)
C18_3 C 0.6968(5) 0.1170(3) 0.7198(6)
C19_3 C 0.6627(5) 0.1145(3) 0.7836(6)
H17_3 H 0.663891 0.141655 0.806692
C20_3 C 0.6264(5) 0.0705(3) 0.8128(7)
C21_3 C 0.5899(5) 0.0673(3) 0.8853(6)
C22_3 C 0.6225(4) 0.0305(2) 0.7683(6)
H18_3 H 0.596444 0.001493 0.782087
C23_3 C 0.6560(5) 0.0329(3) 0.7047(6)
C24_3 C 0.6937(5) 0.0764(3) 0.6804(6)
H19_3 H 0.716893 0.078475 0.637939
H20_3 H 0.715621 0.002827 0.667345
O18_3 O 0.8259(3) 0.2643(2) 0.7420(7)
Cu1_3 Cu 0.666666 0.833333 0.333333
Cu2_3 Cu 0.54667(6) 0.78902(4) 0.38535(10)
O1_3 O 0.60078(23) 0.76999(16) 0.3591(4)
O2_3 O 0.5287(5) 0.7493(3) 0.5179(6)
O3_3 O 0.52965(25) 0.72759(18) 0.3032(5)
O4_3 O 0.4829(4) 0.7855(3) 0.3887(10)
O5_3 O 0.4926(3) 0.5976(2) 0.0753(7)
O6_3 O 0.52920(25) 0.55713(18) 0.0931(4)
O7_3 O 0.79131(28) 0.6567(2) 0.5415(5)
C1_3 C 0.6472(4) 0.6072(3) 0.3732(7)
H5_3 H 0.617521 0.582548 0.358375
C2_3 C 0.5693(4) 0.7331(2) 0.3145(6)
C3_3 C 0.5798(4) 0.6968(2) 0.2802(6)
C4_3 C 0.5482(4) 0.6627(2) 0.2164(6)
H6_3 H 0.522236 0.663891 0.193308
C5_3 C 0.5559(4) 0.6264(3) 0.1872(7)
C6_3 C 0.5226(4) 0.5899(3) 0.1147(6)
C7_3 C 0.5920(4) 0.6225(3) 0.2317(6)
H7_3 H 0.594951 0.596444 0.217913
C8_3 C 0.6231(4) 0.6560(3) 0.2953(6)
C9_3 C 0.6173(4) 0.6937(2) 0.3196(6)
H8_3 H 0.638418 0.716893 0.362061
C10_3 C 0.6599(4) 0.6495(3) 0.3453(7)
C11_3 C 0.7043(4) 0.6862(3) 0.3579(6)
H9_3 H 0.712794 0.715621 0.332655
C12_3 C 0.7373(4) 0.6787(3) 0.4102(6)
H10_3 H 0.767730 0.703235 0.419501
C13_3 C 0.7242(4) 0.6358(3) 0.4461(6)
C14_3 C 0.7544(4) 0.6247(3) 0.5144(7)
C15_3 C 0.6783(4) 0.5996(3) 0.4249(9)
H11_3 H 0.668987 0.569470 0.446938
O15_3 O 0.65670(34) 0.86539(19) 0.4585(5)
O16_3 O 0.5830(5) 0.8456(3) 0.4661(8)
C16_3 C 0.6072(5) 0.9600(3) 0.6268(7)
H16_3 H 0.582548 0.965027 0.641625
C25_3 C 0.6495(5) 0.9896(3) 0.6547(7)
C26_3 C 0.6862(5) 0.9819(3) 0.6421(6)
C27_3 C 0.6787(5) 0.9414(3) 0.5898(6)
H21_3 H 0.703235 0.935505 0.580499
C28_3 C 0.6358(5) 0.9116(3) 0.5539(6)
C29_3 C 0.6247(5) 0.8703(3) 0.4856(7)
C30_3 C 0.5996(5) 0.9213(3) 0.5751(9)
H22_3 H 0.569470 0.900483 0.553062
O17_3 O 0.73255(23) 0.89668(16) 0.3076(4)
O19_3 O 0.5617(4) 0.8259(3) 0.2580(7)
O20_3 O 0.69460(31) 0.80413(25) 0.4264(4)
O21_3 O 0.63874(31) 0.86253(25) 0.2402(4)
O22_3 O 0.67663(34) 0.80128(19) 0.2082(5)
Cu10_3 Cu 0.45569(7) 0.57568(4) 0.94798(10)
O5_4 O 0.0691(2) 0.2283(2) 0.4086(7)
O7_4 O 0.0100(2) 0.46794(19) 0.8748(5)
O8_3 O 0.0837(2) 0.4877(3) 0.8672(8)
C1_4 C 0.0595(3) 0.3733(3) 0.7065(7)
H5_4 H 0.084119 0.368306 0.691708
C4_4 C 0.0040(2) 0.2188(3) 0.5497(6)
H6_4 H 0.002776 0.191678 0.526641
C5_4 C 0.0403(3) 0.2628(3) 0.5205(7)
C6_4 C 0.0768(3) 0.2660(3) 0.4480(6)
C7_4 C 0.0442(3) 0.3028(2) 0.5650(6)
H7_4 H 0.070223 0.331840 0.551246
C8_4 C 0.0107(3) 0.3004(3) 0.6286(6)
C10_4 C 0.0172(3) 0.3437(3) 0.6786(7)
C13_4 C 0.0309(3) 0.4217(3) 0.7794(6)
C14_4 C 0.0420(3) 0.4630(3) 0.8477(7)
C15_4 C 0.0671(3) 0.4120(3) 0.7582(9)
H11_4 H 0.097197 0.432850 0.780271
Cu10_4 Cu 0.09098(4) 0.21334(6) 0.28132(10)
H20_4 H 0.663840 0.046127 0.000678
Cu2_4 Cu 0.87765(4) 0.09098(4) 0.71868(10)
O1_4 O 0.89668(16) 0.16412(17) 0.6924(4)
O2_4 O 0.9174(3) 0.1127(4) 0.8512(6)
O3_4 O 0.93908(18) 0.13539(18) 0.6365(5)
O4_4 O 0.8812(3) 0.0307(3) 0.7220(10)
C2_4 C 0.9336(2) 0.1695(3) 0.6478(6)
C3_4 C 0.9699(2) 0.2163(3) 0.6135(6)
C9_4 C 0.9730(2) 0.2569(3) 0.6529(6)
H8_4 H 0.949774 0.254858 0.695394
C11_4 C 0.9805(3) 0.3514(3) 0.6912(6)
H9_4 H 0.951046 0.330506 0.665988
C12_4 C 0.9880(3) 0.3919(3) 0.7435(6)
H10_4 H 0.963432 0.397828 0.752834
O15_4 O 0.80128(19) 0.12464(28) 0.7918(5)
O16_4 O 0.8211(3) 0.0707(4) 0.7994(8)
C26_4 C 0.6848(3) 0.0376(4) 0.9754(6)
C27_4 C 0.7253(3) 0.0706(4) 0.9231(6)
H21_4 H 0.731162 0.101063 0.913832
C28_4 C 0.7551(3) 0.0575(4) 0.8872(6)
C29_4 C 0.7964(3) 0.0877(4) 0.8189(7)
C30_4 C 0.7454(3) 0.0116(4) 0.9084(9)
H22_4 H 0.766184 0.002320 0.886395
O19_4 O 0.8407(3) 0.0691(2) 0.5914(7)
O20_4 O 0.86253(25) 0.22380(18) 0.7598(4)
O21_4 O 0.80413(25) 0.10954(18) 0.5736(4)
O11_4 O 0.46873(18) 0.86298(25) 0.0301(5)
C17_4 C 0.5029(3) 0.9026(4) 0.0188(6)
C18_4 C 0.5497(3) 0.9131(4) 0.0531(6)
C19_4 C 0.5522(3) 0.8815(4) 0.1169(6)
H17_4 H 0.525012 0.855569 0.140025
C20_4 C 0.5962(3) 0.8892(4) 0.1461(7)
C21_4 C 0.5994(3) 0.8559(4) 0.2186(6)
C22_4 C 0.6362(2) 0.9253(4) 0.1016(6)
H18_4 H 0.665174 0.928284 0.115420
C23_4 C 0.6338(3) 0.9564(4) 0.0380(6)
C24_4 C 0.5903(3) 0.9506(4) 0.0137(6)
O9_4 O 0.49746(17) 0.93411(23) 0.9742(4)
O10_4 O 0.4461(4) 0.8620(5) 0.8154(6)
O12_4 O 0.3641(3) 0.8162(4) 0.9446(10)
C16_4 C 0.7067(3) 0.9805(4) 0.9601(7)
H16_4 H 0.701640 0.950854 0.974958
H19_4 H 0.588192 0.971751 0.971272
C25_4 C 0.6771(3) 0.9932(4) 0.9880(7)
O23_2 O 0.4041(4) 0.9163(2) 0.8672(8)
O11_5 O 0.13702(25) 0.60574(31) 0.0301(5)
C17_5 C 0.0974(4) 0.6002(5) 0.0188(6)
C18_5 C 0.0869(4) 0.6365(5) 0.0531(6)
C19_5 C 0.1185(4) 0.6706(5) 0.1169(6)
H17_5 H 0.144431 0.669442 0.140025
C20_5 C 0.1108(4) 0.7069(5) 0.1461(7)
C21_5 C 0.1441(4) 0.7434(5) 0.2186(6)
C22_5 C 0.0747(4) 0.7108(4) 0.1016(6)
H18_5 H 0.071716 0.736889 0.115420
C23_5 C 0.0436(4) 0.6773(5) 0.0380(6)
C24_5 C 0.0494(4) 0.6396(5) 0.0137(6)
O9_5 O 0.06589(23) 0.56334(29) 0.9742(4)
O10_5 O 0.1380(5) 0.5840(6) 0.8154(6)
O12_5 O 0.1838(4) 0.5478(5) 0.9446(10)
C16_5 C 0.0195(4) 0.7261(5) 0.9601(7)
H16_5 H 0.049146 0.750785 0.974958
H19_5 H 0.028249 0.616440 0.971272
C25_5 C 0.0068(4) 0.6838(5) 0.9880(7)
H20_5 H 0.953873 0.617712 0.000678
Cu2_5 Cu 0.90902(4) 0.78666(6) 0.71868(10)
O1_5 O 0.83588(17) 0.73255(23) 0.6924(4)
O2_5 O 0.8873(4) 0.8046(5) 0.8512(6)
O3_5 O 0.86461(18) 0.80368(25) 0.6365(5)
O4_5 O 0.9693(3) 0.8504(4) 0.7220(10)
O5_5 O 0.7717(2) 0.8407(3) 0.4086(7)
O7_5 O 0.53206(19) 0.54202(28) 0.8748(5)
O8_4 O 0.5123(3) 0.5959(4) 0.8672(8)
C1_5 C 0.6267(3) 0.6861(4) 0.7065(7)
H5_5 H 0.631694 0.715812 0.691708
C2_5 C 0.8305(3) 0.7640(4) 0.6478(6)
C3_5 C 0.7837(3) 0.7535(4) 0.6135(6)
C4_5 C 0.7812(3) 0.7851(4) 0.5497(6)
H6_5 H 0.808322 0.811097 0.526641
C5_5 C 0.7372(3) 0.7774(4) 0.5205(7)
C6_5 C 0.7340(3) 0.8107(4) 0.4480(6)
C7_5 C 0.6972(2) 0.7413(4) 0.5650(6)
H7_5 H 0.668160 0.738382 0.551246
C8_5 C 0.6996(3) 0.7102(4) 0.6286(6)
C9_5 C 0.7431(3) 0.7160(4) 0.6529(6)
H8_5 H 0.745142 0.694915 0.695394
C10_5 C 0.6563(3) 0.6734(4) 0.6786(7)
C11_5 C 0.6486(3) 0.6290(4) 0.6912(6)
H9_5 H 0.669494 0.620539 0.665988
C12_5 C 0.6081(3) 0.5960(4) 0.7435(6)
H10_5 H 0.602172 0.565603 0.752834
C13_5 C 0.5783(3) 0.6091(4) 0.7794(6)
C14_5 C 0.5370(3) 0.5789(4) 0.8477(7)
C15_5 C 0.5880(3) 0.6550(4) 0.7582(9)
H11_5 H 0.567150 0.664346 0.780271
O15_5 O 0.87536(28) 0.67663(34) 0.7918(5)
O16_5 O 0.9293(4) 0.7503(5) 0.7994(8)
C26_5 C 0.9624(4) 0.6471(5) 0.9754(6)
C27_5 C 0.9294(4) 0.6546(5) 0.9231(6)
H21_5 H 0.898937 0.630098 0.913832
C28_5 C 0.9425(4) 0.6975(5) 0.8872(6)
C29_5 C 0.9123(4) 0.7086(5) 0.8189(7)
C30_5 C 0.9884(4) 0.7337(5) 0.9084(9)
H22_5 H 0.997680 0.763863 0.886395
Cu10_5 Cu 0.78666(6) 0.87765(7) 0.28132(10)
O19_5 O 0.9309(2) 0.7717(4) 0.5914(7)
O20_5 O 0.77620(18) 0.63874(31) 0.7598(4)
O21_5 O 0.89046(18) 0.69460(31) 0.5736(4)
O11_6 O 0.39426(31) 0.53127(18) 0.0301(5)
C17_6 C 0.3998(5) 0.4971(3) 0.0188(6)
C18_6 C 0.3635(5) 0.4503(3) 0.0531(6)
C19_6 C 0.3294(5) 0.4478(3) 0.1169(6)
H17_6 H 0.330558 0.474988 0.140025
C20_6 C 0.2931(5) 0.4038(3) 0.1461(7)
C21_6 C 0.2566(5) 0.4006(3) 0.2186(6)
C22_6 C 0.2892(4) 0.3638(2) 0.1016(6)
H18_6 H 0.263111 0.334826 0.115420
C23_6 C 0.3227(5) 0.3662(3) 0.0380(6)
C24_6 C 0.3604(5) 0.4097(3) 0.0137(6)
H20_6 H 0.382288 0.336160 0.000678
Cu2_6 Cu 0.21334(6) 0.12235(4) 0.71868(10)
O1_6 O 0.26745(23) 0.10332(16) 0.6924(4)
O2_6 O 0.1954(5) 0.0826(3) 0.8512(6)
O3_6 O 0.19632(25) 0.06092(18) 0.6365(5)
O4_6 O 0.1496(4) 0.1188(3) 0.7220(10)
C2_6 C 0.2360(4) 0.0664(2) 0.6478(6)
C3_6 C 0.2465(4) 0.0301(2) 0.6135(6)
C9_6 C 0.2840(4) 0.0270(2) 0.6529(6)
H8_6 H 0.305085 0.050226 0.695394
C11_6 C 0.3710(4) 0.0195(3) 0.6912(6)
H9_6 H 0.379461 0.048954 0.665988
C12_6 C 0.4040(4) 0.0120(3) 0.7435(6)
H10_6 H 0.434397 0.036568 0.752834
O9_6 O 0.43666(29) 0.50254(17) 0.9742(4)
O10_6 O 0.4160(6) 0.5539(4) 0.8154(6)
O12_6 O 0.4522(5) 0.6359(3) 0.9446(10)
O15_6 O 0.32337(34) 0.19872(19) 0.7918(5)
O16_6 O 0.2497(5) 0.1789(3) 0.7994(8)
C16_6 C 0.2739(5) 0.2933(3) 0.9601(7)
H16_6 H 0.249215 0.298360 0.974958
H19_6 H 0.383560 0.411808 0.971272
C25_6 C 0.3162(5) 0.3229(3) 0.9880(7)
C26_6 C 0.3529(5) 0.3152(3) 0.9754(6)
C27_6 C 0.3454(5) 0.2747(3) 0.9231(6)
H21_6 H 0.369902 0.268838 0.913832
C28_6 C 0.3025(5) 0.2449(3) 0.8872(6)
C29_6 C 0.2914(5) 0.2036(3) 0.8189(7)
C30_6 C 0.2663(5) 0.2546(3) 0.9084(9)
H22_6 H 0.236137 0.233816 0.886395
O19_6 O 0.2283(4) 0.1593(3) 0.5914(7)
O20_6 O 0.36126(31) 0.13747(25) 0.7598(4)
O21_6 O 0.30540(31) 0.19587(25) 0.5736(4)
O5_6 O 0.1593(3) 0.9309(2) 0.4086(7)
O7_6 O 0.45798(28) 0.9900(2) 0.8748(5)
C1_6 C 0.3139(4) 0.9405(3) 0.7065(7)
H5_6 H 0.284188 0.915881 0.691708
C4_6 C 0.2149(4) 0.9960(2) 0.5497(6)
H6_6 H 0.188903 0.997224 0.526641
C5_6 C 0.2226(4) 0.9597(3) 0.5205(7)
C6_6 C 0.1893(4) 0.9232(3) 0.4480(6)
C7_6 C 0.2587(4) 0.9558(3) 0.5650(6)
H7_6 H 0.261618 0.929777 0.551246
C8_6 C 0.2898(4) 0.9893(3) 0.6286(6)
C10_6 C 0.3266(4) 0.9828(3) 0.6786(7)
C13_6 C 0.3909(4) 0.9691(3) 0.7794(6)
C14_6 C 0.4211(4) 0.9580(3) 0.8477(7)
C15_6 C 0.3450(4) 0.9329(3) 0.7582(9)
H11_6 H 0.335654 0.902803 0.780271
Cu10_6 Cu 0.12235(7) 0.90902(4) 0.28132(10)
O1_7 O 0.56334(16) 0.49746(17) 0.0258(4)
O2_7 O 0.5840(3) 0.4461(4) 0.1846(6)
O4_7 O 0.5478(3) 0.3641(3) 0.0554(10)
O8_5 O 0.7503(2) 0.8211(3) 0.2006(8)
C1_7 C 0.7261(3) 0.7067(3) 0.0399(7)
H5_7 H 0.750785 0.701640 0.025042
H8_7 H 0.616440 0.588192 0.028728
C10_7 C 0.6838(3) 0.6771(3) 0.0120(7)
C11_7 C 0.6471(3) 0.6848(3) 0.0246(6)
C12_7 C 0.6546(3) 0.7253(3) 0.0769(6)
H10_7 H 0.630098 0.731162 0.086168
C13_7 C 0.6975(3) 0.7551(3) 0.1128(6)
C14_7 C 0.7086(3) 0.7964(3) 0.1811(7)
C15_7 C 0.7337(3) 0.7454(3) 0.0916(9)
H11_7 H 0.763863 0.766184 0.113605
O10_7 O 0.1127(4) 0.1954(5) 0.1488(6)
O11_7 O 0.13539(18) 0.19632(25) 0.3635(5)
O12_7 O 0.0307(3) 0.1496(4) 0.2780(10)
O15_7 O 0.46794(19) 0.45798(28) 0.1252(5)
O16_7 O 0.4877(3) 0.4041(4) 0.1328(8)
C16_7 C 0.3733(3) 0.3139(4) 0.2935(7)
H16_7 H 0.368306 0.284188 0.308292
C17_7 C 0.1695(3) 0.2360(4) 0.3522(6)
C18_7 C 0.2163(3) 0.2465(4) 0.3865(6)
C19_7 C 0.2188(3) 0.2149(4) 0.4503(6)
H17_7 H 0.191678 0.188903 0.473359
C20_7 C 0.2628(3) 0.2226(4) 0.4795(7)
C21_7 C 0.2660(3) 0.1893(4) 0.5520(6)
C22_7 C 0.3028(2) 0.2587(4) 0.4350(6)
H18_7 H 0.331840 0.261618 0.448754
C23_7 C 0.3004(3) 0.2898(4) 0.3714(6)
C24_7 C 0.2569(3) 0.2840(4) 0.3471(6)
H19_7 H 0.254858 0.305085 0.304606
C25_7 C 0.3437(3) 0.3266(4) 0.3214(7)
C26_7 C 0.3514(3) 0.3710(4) 0.3088(6)
H20_7 H 0.330506 0.379461 0.334012
C27_7 C 0.3919(3) 0.4040(4) 0.2565(6)
H21_7 H 0.397828 0.434397 0.247166
C28_7 C 0.4217(3) 0.3909(4) 0.2206(6)
C29_7 C 0.4630(3) 0.4211(4) 0.1523(7)
C30_7 C 0.4120(3) 0.3450(4) 0.2418(9)
H22_7 H 0.432850 0.335654 0.219729
O23_3 O 0.0707(4) 0.2497(2) 0.2006(8)
O3_7 O 0.60574(18) 0.46873(18) 0.9699(5)
C2_7 C 0.6002(2) 0.5029(3) 0.9812(6)
C3_7 C 0.6365(2) 0.5497(3) 0.9469(6)
C4_7 C 0.6706(2) 0.5522(3) 0.8831(6)
H6_7 H 0.669442 0.525012 0.859975
C5_7 C 0.7069(3) 0.5962(3) 0.8539(7)
C6_7 C 0.7434(3) 0.5994(3) 0.7814(6)
C7_7 C 0.7108(3) 0.6362(2) 0.8984(6)
H7_7 H 0.736889 0.665174 0.884580
C8_7 C 0.6773(3) 0.6338(3) 0.9620(6)
C9_7 C 0.6396(2) 0.5903(3) 0.9863(6)
H9_7 H 0.617712 0.663840 0.999322
O1_8 O 0.50254(17) 0.06589(23) 0.0258(4)
O2_8 O 0.5539(4) 0.1380(5) 0.1846(6)
O4_8 O 0.6359(3) 0.1838(4) 0.0554(10)
C1_8 C 0.2933(3) 0.0195(4) 0.0399(7)
H5_8 H 0.298360 0.049146 0.025042
H8_8 H 0.411808 0.028249 0.028728
C10_8 C 0.3229(3) 0.0068(4) 0.0120(7)
O15_8 O 0.54202(28) 0.00997(34) 0.1252(5)
O16_8 O 0.5959(4) 0.0837(5) 0.1328(8)
C16_8 C 0.6861(4) 0.0595(5) 0.2935(7)
H16_8 H 0.715812 0.084119 0.308292
C19_8 C 0.7851(4) 0.0040(5) 0.4503(6)
H17_8 H 0.811097 0.002776 0.473359
C20_8 C 0.7774(4) 0.0403(5) 0.4795(7)
C21_8 C 0.8107(4) 0.0768(5) 0.5520(6)
C22_8 C 0.7413(4) 0.0442(4) 0.4350(6)
H18_8 H 0.738382 0.070223 0.448754
C23_8 C 0.7102(4) 0.0107(5) 0.3714(6)
C25_8 C 0.6734(4) 0.0172(5) 0.3214(7)
C28_8 C 0.6091(4) 0.0309(5) 0.2206(6)
C29_8 C 0.5789(4) 0.0420(5) 0.1523(7)
C30_8 C 0.6550(4) 0.0671(5) 0.2418(9)
H22_8 H 0.664346 0.097197 0.219729
O3_8 O 0.53127(18) 0.13702(25) 0.9699(5)
C2_8 C 0.4971(3) 0.0974(4) 0.9812(6)
C3_8 C 0.4503(3) 0.0869(4) 0.9469(6)
C4_8 C 0.4478(3) 0.1185(4) 0.8831(6)
H6_8 H 0.474988 0.144431 0.859975
C5_8 C 0.4038(3) 0.1108(4) 0.8539(7)
C6_8 C 0.4006(3) 0.1441(4) 0.7814(6)
C7_8 C 0.3638(2) 0.0747(4) 0.8984(6)
H7_8 H 0.334826 0.071716 0.884580
C8_8 C 0.3662(3) 0.0436(4) 0.9620(6)
C9_8 C 0.4097(3) 0.0494(4) 0.9863(6)
O8_6 O 0.1789(3) 0.9293(4) 0.2006(8)
C11_8 C 0.3152(3) 0.9624(4) 0.0246(6)
C12_8 C 0.2747(3) 0.9294(4) 0.0769(6)
H10_8 H 0.268838 0.898937 0.086168
C13_8 C 0.2449(3) 0.9425(4) 0.1128(6)
C14_8 C 0.2036(3) 0.9123(4) 0.1811(7)
C15_8 C 0.2546(3) 0.9884(4) 0.0916(9)
H11_8 H 0.233816 0.997680 0.113605
O10_8 O 0.8046(5) 0.9174(6) 0.1488(6)
O11_8 O 0.80368(25) 0.93908(31) 0.3635(5)
O12_8 O 0.8504(4) 0.8812(5) 0.2780(10)
C17_8 C 0.7640(4) 0.9336(5) 0.3522(6)
C18_8 C 0.7535(4) 0.9699(5) 0.3865(6)
C24_8 C 0.7160(4) 0.9730(5) 0.3471(6)
H19_8 H 0.694915 0.949774 0.304606
C26_8 C 0.6290(4) 0.9805(5) 0.3088(6)
H20_8 H 0.620539 0.951046 0.334012
C27_8 C 0.5960(4) 0.9880(5) 0.2565(6)
H21_8 H 0.565603 0.963432 0.247166
H9_8 H 0.336160 0.953873 0.999322
C11_9 C 0.0376(4) 0.3529(3) 0.0246(6)
C12_9 C 0.0706(4) 0.3454(3) 0.0769(6)
H10_9 H 0.101063 0.369902 0.086168
C13_9 C 0.0575(4) 0.3025(3) 0.1128(6)
C14_9 C 0.0877(4) 0.2914(3) 0.1811(7)
C15_9 C 0.0116(4) 0.2663(3) 0.0916(9)
H11_9 H 0.002320 0.236137 0.113605
O10_9 O 0.0826(6) 0.8873(4) 0.1488(6)
O11_9 O 0.06092(31) 0.86461(18) 0.3635(5)
O12_9 O 0.1188(5) 0.9693(3) 0.2780(10)
C17_9 C 0.0664(5) 0.8305(3) 0.3522(6)
C18_9 C 0.0301(5) 0.7837(3) 0.3865(6)
C24_9 C 0.0270(5) 0.7431(3) 0.3471(6)
H19_9 H 0.050226 0.745142 0.304606
C26_9 C 0.0195(5) 0.6486(3) 0.3088(6)
H20_9 H 0.048954 0.669494 0.334012
C27_9 C 0.0120(5) 0.6081(3) 0.2565(6)
H21_9 H 0.036568 0.602172 0.247166
H9_9 H 0.046127 0.382288 0.999322
O1_9 O 0.93411(23) 0.43666(16) 0.0258(4)
O2_9 O 0.8620(5) 0.4160(3) 0.1846(6)
O4_9 O 0.8162(4) 0.4522(3) 0.0554(10)
C1_9 C 0.9805(4) 0.2739(3) 0.0399(7)
H5_9 H 0.950854 0.249215 0.025042
H8_9 H 0.971751 0.383560 0.028728
C10_9 C 0.9932(4) 0.3162(3) 0.0120(7)
O15_9 O 0.99003(34) 0.53206(19) 0.1252(5)
O16_9 O 0.9163(5) 0.5123(3) 0.1328(8)
C16_9 C 0.9405(5) 0.6267(3) 0.2935(7)
H16_9 H 0.915881 0.631694 0.308292
C19_9 C 0.9960(5) 0.7812(3) 0.4503(6)
H17_9 H 0.997224 0.808322 0.473359
C20_9 C 0.9597(5) 0.7372(3) 0.4795(7)
C21_9 C 0.9232(5) 0.7340(3) 0.5520(6)
C22_9 C 0.9558(4) 0.6972(2) 0.4350(6)
H18_9 H 0.929777 0.668160 0.448754
C23_9 C 0.9893(5) 0.6996(3) 0.3714(6)
C25_9 C 0.9828(5) 0.6563(3) 0.3214(7)
C28_9 C 0.9691(5) 0.5783(3) 0.2206(6)
C29_9 C 0.9580(5) 0.5370(3) 0.1523(7)
C30_9 C 0.9329(5) 0.5880(3) 0.2418(9)
H22_9 H 0.902803 0.567150 0.219729
O3_9 O 0.86298(25) 0.39426(18) 0.9699(5)
C2_9 C 0.9026(4) 0.3998(2) 0.9812(6)
C3_9 C 0.9131(4) 0.3635(2) 0.9469(6)
C4_9 C 0.8815(4) 0.3294(2) 0.8831(6)
H6_9 H 0.855569 0.330558 0.859975
C5_9 C 0.8892(4) 0.2931(3) 0.8539(7)
C6_9 C 0.8559(4) 0.2566(3) 0.7814(6)
C7_9 C 0.9253(4) 0.2892(3) 0.8984(6)
H7_9 H 0.928284 0.263111 0.884580
C8_9 C 0.9564(4) 0.3227(3) 0.9620(6)
C9_9 C 0.9506(4) 0.3604(2) 0.9863(6)
loop_
_geom_bond_atom_site_label_1
_geom_bond_atom_site_label_2
_geom_bond_site_symmetry_1
_geom_bond_site_symmetry_2
O7 C14 1_555 1_555
O8 C14 1_555 1_555
C1 H5 1_555 1_555
C10 C1 1_555 1_555
C11 C10 1_555 1_555
C12 C11 1_555 1_555
H10 C12 1_555 1_555
C13 C12 1_555 1_555
C14 C13 1_555 1_555
C15 C1 1_555 1_555
H11 C15 1_555 1_555
Cu5 O7 1_555 1_555
Cu9 O8 1_555 1_555
C13 C15 1_555 1_555
Cu1 O1 1_555 1_555
Cu2 O1 1_555 1_555
O1 C2 1_555 1_555
O2 Cu2 1_555 1_555
O3 Cu2 1_555 1_555
O4 Cu2 1_555 1_555
O5 C6 1_555 1_555
O6 C6 1_555 1_555
C2 O3 1_555 1_555
C3 C2 1_555 1_555
C4 C3 1_555 1_555
H6 C4 1_555 1_555
C5 C4 1_555 1_555
C6 C5 1_555 1_555
C7 C5 1_555 1_555
H7 C7 1_555 1_555
C8 C7 1_555 1_555
C9 C3 1_555 1_555
H8 C9 1_555 1_555
O15 Cu1 1_555 1_555
O16 Cu2 1_555 1_555
C16 H16 1_555 1_555
C25 C16 1_555 1_555
C26 C25 1_555 1_555
C27 C26 1_555 1_555
H21 C27 1_555 1_555
C28 C27 1_555 1_555
C29 O15 1_555 1_555
C30 C16 1_555 1_555
H22 C30 1_555 1_555
Cu6_3 O6 1_555 1_555
O17 Cu1 1_555 1_555
O19 Cu2 1_555 1_555
O20 Cu1 1_555 1_555
O21 Cu1 1_555 1_555
O22 Cu1 1_555 1_555
C8 C9 1_555 1_555
O16 C29 1_555 1_555
C28 C29 1_555 1_555
C28 C30 1_555 1_555
Cu3 O9 1_555 1_555
O9 C17 1_555 1_555
O10 Cu3 1_555 1_555
O11 Cu3 1_555 1_555
O12 Cu3 1_555 1_555
O13 C21 1_555 1_555
O14 C21 1_555 1_555
C17 O11 1_555 1_555
C18 C17 1_555 1_555
C19 C18 1_555 1_555
H17 C19 1_555 1_555
C20 C19 1_555 1_555
C21 C20 1_555 1_555
C22 C20 1_555 1_555
H18 C22 1_555 1_555
C23 C22 1_555 1_555
C24 C18 1_555 1_555
H19 C24 1_555 1_555
Cu4 O9 1_555 1_555
Cu7_4 O14 1_555 1_555
O18 Cu3 1_555 1_555
O23 Cu3 1_555 1_555
C23 C24 1_555 1_555
Cu1_2 O1_2 1_555 1_555
Cu2_2 O1_2 1_555 1_555
O1_2 C2_2 1_555 1_555
O2_2 Cu2_2 1_555 1_555
O3_2 Cu2_2 1_555 1_555
O4_2 Cu2_2 1_555 1_555
O5_2 C6_2 1_555 1_555
O6_2 C6_2 1_555 1_555
C2_2 O3_2 1_555 1_555
C3_2 C2_2 1_555 1_555
C4_2 C3_2 1_555 1_555
H6_2 C4_2 1_555 1_555
C5_2 C4_2 1_555 1_555
C6_2 C5_2 1_555 1_555
C7_2 C5_2 1_555 1_555
H7_2 C7_2 1_555 1_555
C8_2 C7_2 1_555 1_555
C9_2 C3_2 1_555 1_555
H8_2 C9_2 1_555 1_555
Cu9 O9_2 1_555 1_555
O9_2 C17_2 1_555 1_555
O10_2 Cu9 1_555 1_555
O11_2 Cu9 1_555 1_555
O12_2 Cu9 1_555 1_555
O13_2 C21_2 1_555 1_555
O14_2 C21_2 1_555 1_555
O15_2 Cu1_2 1_555 1_555
O16_2 Cu2_2 1_555 1_555
C16_2 H16_2 1_555 1_555
C17_2 O11_2 1_555 1_555
C18_2 C17_2 1_555 1_555
C19_2 C18_2 1_555 1_555
H17_2 C19_2 1_555 1_555
C20_2 C19_2 1_555 1_555
C21_2 C20_2 1_555 1_555
C22_2 C20_2 1_555 1_555
H18_2 C22_2 1_555 1_555
C23_2 C22_2 1_555 1_555
C24_2 C18_2 1_555 1_555
H19_2 C24_2 1_555 1_555
C25_2 C16_2 1_555 1_555
C26_2 C25_2 1_555 1_555
H20_2 C26_2 1_555 1_555
C27_2 C26_2 1_555 1_555
H21_2 C27_2 1_555 1_555
C28_2 C27_2 1_555 1_555
C29_2 O15_2 1_555 1_555
C30_2 C16_2 1_555 1_555
H22_2 C30_2 1_555 1_555
Cu5 O9_2 1_555 1_555
Cu7 O6_2 1_555 1_555
Cu7_6 O14_2 1_555 1_555
O17_2 Cu1_2 1_555 1_555
O18_2 Cu9 1_555 1_555
O19_2 Cu2_2 1_555 1_555
O20_2 Cu1_2 1_555 1_555
O21_2 Cu1_2 1_555 1_555
O22_2 Cu1_2 1_555 1_555
C8_2 C9_2 1_555 1_555
O16_2 C29_2 1_555 1_555
C23_2 C24_2 1_555 1_555
C23_2 C25_2 1_555 1_555
C28_2 C29_2 1_555 1_555
C28_2 C30_2 1_555 1_555
O7_2 C14_2 1_555 1_555
O8_2 C14_2 1_555 1_555
C1_2 H5_2 1_555 1_555
C10_2 C1_2 1_555 1_555
C11_2 C10_2 1_555 1_555
C12_2 C11_2 1_555 1_555
H10_2 C12_2 1_555 1_555
C13_2 C12_2 1_555 1_555
C14_2 C13_2 1_555 1_555
C15_2 C1_2 1_555 1_555
H11_2 C15_2 1_555 1_555
Cu5_2 O7_2 1_555 1_555
Cu9_2 O8_2 1_555 1_555
C13_2 C15_2 1_555 1_555
Cu9_2 O9_3 1_555 1_555
O9_3 C17_3 1_555 1_555
O10_3 Cu9_2 1_555 1_555
O11_3 Cu9_2 1_555 1_555
O12_3 Cu9_2 1_555 1_555
O13_3 C21_3 1_555 1_555
O14_3 C21_3 1_555 1_555
C17_3 O11_3 1_555 1_555
C18_3 C17_3 1_555 1_555
C19_3 C18_3 1_555 1_555
H17_3 C19_3 1_555 1_555
C20_3 C19_3 1_555 1_555
C21_3 C20_3 1_555 1_555
C22_3 C20_3 1_555 1_555
H18_3 C22_3 1_555 1_555
C23_3 C22_3 1_555 1_555
C24_3 C18_3 1_555 1_555
H19_3 C24_3 1_555 1_555
Cu5_2 O9_3 1_555 1_555
Cu6_2 O14_3 1_555 1_555
O18_3 Cu9_2 1_555 1_555
C23_3 C24_3 1_555 1_555
Cu1_3 O1_3 1_555 1_555
Cu2_3 O1_3 1_555 1_555
O1_3 C2_3 1_555 1_555
O2_3 Cu2_3 1_555 1_555
O3_3 Cu2_3 1_555 1_555
O4_3 Cu2_3 1_555 1_555
O5_3 C6_3 1_555 1_555
O6_3 C6_3 1_555 1_555
O7_3 C14_3 1_555 1_555
O23 C14_3 1_555 1_555
C1_3 H5_3 1_555 1_555
C2_3 O3_3 1_555 1_555
C3_3 C2_3 1_555 1_555
C4_3 C3_3 1_555 1_555
H6_3 C4_3 1_555 1_555
C5_3 C4_3 1_555 1_555
C6_3 C5_3 1_555 1_555
C7_3 C5_3 1_555 1_555
H7_3 C7_3 1_555 1_555
C8_3 C7_3 1_555 1_555
C9_3 C3_3 1_555 1_555
H8_3 C9_3 1_555 1_555
C10_3 C1_3 1_555 1_555
C11_3 C10_3 1_555 1_555
H9_3 C11_3 1_555 1_555
C12_3 C11_3 1_555 1_555
H10_3 C12_3 1_555 1_555
C13_3 C12_3 1_555 1_555
C14_3 C13_3 1_555 1_555
C15_3 C1_3 1_555 1_555
H11_3 C15_3 1_555 1_555
O15_3 Cu1_3 1_555 1_555
O16_3 Cu2_3 1_555 1_555
C16_3 H16_3 1_555 1_555
C25_3 C16_3 1_555 1_555
C26_3 C25_3 1_555 1_555
C27_3 C26_3 1_555 1_555
H21_3 C27_3 1_555 1_555
C28_3 C27_3 1_555 1_555
C29_3 O15_3 1_555 1_555
C30_3 C16_3 1_555 1_555
H22_3 C30_3 1_555 1_555
Cu4 O7_3 1_555 1_555
Cu7_5 O6_3 1_555 1_555
O17_3 Cu1_3 1_555 1_555
O19_3 Cu2_3 1_555 1_555
O20_3 Cu1_3 1_555 1_555
O21_3 Cu1_3 1_555 1_555
O22_3 Cu1_3 1_555 1_555
C8_3 C9_3 1_555 1_555
C8_3 C10_3 1_555 1_555
C13_3 C15_3 1_555 1_555
O16_3 C29_3 1_555 1_555
C28_3 C29_3 1_555 1_555
C28_3 C30_3 1_555 1_555
O5_4 C6_4 1_555 1_555
O20_2 C6_4 1_555 1_555
O7_4 C14_4 1_555 1_555
O8_3 C14_4 1_555 1_555
C1_4 H5_4 1_555 1_555
H6_4 C4_4 1_555 1_555
C5_4 C4_4 1_555 1_555
C6_4 C5_4 1_555 1_555
C7_4 C5_4 1_555 1_555
H7_4 C7_4 1_555 1_555
C8_4 C7_4 1_555 1_555
C10_4 C1_4 1_555 1_555
C14_4 C13_4 1_555 1_555
C15_4 C1_4 1_555 1_555
H11_4 C15_4 1_555 1_555
Cu7_2 O7_4 1_555 1_555
Cu10_2 O8_3 1_555 1_555
Cu10_4 O5_4 1_555 1_555
C8_4 C10_4 1_555 1_555
C13_4 C15_4 1_555 1_555
Cu5_2 O1_4 1_555 1_555
Cu2_4 O1_4 1_555 1_555
O1_4 C2_4 1_555 1_555
O2_4 Cu2_4 1_555 1_555
O3_4 Cu2_4 1_555 1_555
O4_4 Cu2_4 1_555 1_555
C2_4 O3_4 1_555 1_555
C3_4 C2_4 1_555 1_555
C9_4 C3_4 1_555 1_555
H8_4 C9_4 1_555 1_555
H9_4 C11_4 1_555 1_555
C12_4 C11_4 1_555 1_555
H10_4 C12_4 1_555 1_555
O15_4 Cu5_2 1_555 1_555
O16_4 Cu2_4 1_555 1_555
C27_4 C26_4 1_555 1_555
H21_4 C27_4 1_555 1_555
C28_4 C27_4 1_555 1_555
C29_4 O15_4 1_555 1_555
H22_4 C30_4 1_555 1_555
O19_4 Cu2_4 1_555 1_555
O20_4 Cu5_2 1_555 1_555
O21_4 Cu5_2 1_555 1_555
O16_4 C29_4 1_555 1_555
C28_4 C29_4 1_555 1_555
C28_4 C30_4 1_555 1_555
O19_3 C21_4 1_555 1_555
O21_3 C21_4 1_555 1_555
C17_4 O11_4 1_555 1_555
C18_4 C17_4 1_555 1_555
C19_4 C18_4 1_555 1_555
H17_4 C19_4 1_555 1_555
C20_4 C19_4 1_555 1_555
C21_4 C20_4 1_555 1_555
C22_4 C20_4 1_555 1_555
H18_4 C22_4 1_555 1_555
C23_4 C22_4 1_555 1_555
C24_4 C18_4 1_555 1_555
C23_4 C24_4 1_555 1_555
Cu10 O9_4 1_555 1_555
O10_4 Cu10 1_555 1_555
O12_4 Cu10 1_555 1_555
C16_4 H16_4 1_555 1_555
C25_4 C16_4 1_555 1_555
Cu6_4 O9_4 1_555 1_555
O23_2 Cu10 1_555 1_555
O19 C21_5 1_555 1_555
O21 C21_5 1_555 1_555
C17_5 O11_5 1_555 1_555
C18_5 C17_5 1_555 1_555
C19_5 C18_5 1_555 1_555
H17_5 C19_5 1_555 1_555
C20_5 C19_5 1_555 1_555
C21_5 C20_5 1_555 1_555
C22_5 C20_5 1_555 1_555
H18_5 C22_5 1_555 1_555
C23_5 C22_5 1_555 1_555
C24_5 C18_5 1_555 1_555
C23_5 C24_5 1_555 1_555
Cu10_2 O9_5 1_555 1_555
O10_5 Cu10_2 1_555 1_555
O12_5 Cu10_2 1_555 1_555
C16_5 H16_5 1_555 1_555
C25_5 C16_5 1_555 1_555
Cu7_2 O9_5 1_555 1_555
Cu4 O1_5 1_555 1_555
Cu2_5 O1_5 1_555 1_555
O1_5 C2_5 1_555 1_555
O2_5 Cu2_5 1_555 1_555
O3_5 Cu2_5 1_555 1_555
O4_5 Cu2_5 1_555 1_555
O5_5 C6_5 1_555 1_555
O20_3 C6_5 1_555 1_555
O7_5 C14_5 1_555 1_555
O8_4 C14_5 1_555 1_555
C1_5 H5_5 1_555 1_555
C2_5 O3_5 1_555 1_555
C3_5 C2_5 1_555 1_555
C4_5 C3_5 1_555 1_555
H6_5 C4_5 1_555 1_555
C5_5 C4_5 1_555 1_555
C6_5 C5_5 1_555 1_555
C7_5 C5_5 1_555 1_555
H7_5 C7_5 1_555 1_555
C8_5 C7_5 1_555 1_555
C9_5 C3_5 1_555 1_555
H8_5 C9_5 1_555 1_555
C10_5 C1_5 1_555 1_555
C11_5 C10_5 1_555 1_555
H9_5 C11_5 1_555 1_555
C12_5 C11_5 1_555 1_555
H10_5 C12_5 1_555 1_555
C13_5 C12_5 1_555 1_555
C14_5 C13_5 1_555 1_555
C15_5 C1_5 1_555 1_555
H11_5 C15_5 1_555 1_555
O15_5 Cu4 1_555 1_555
O16_5 Cu2_5 1_555 1_555
C27_5 C26_5 1_555 1_555
H21_5 C27_5 1_555 1_555
C28_5 C27_5 1_555 1_555
C29_5 O15_5 1_555 1_555
H22_5 C30_5 1_555 1_555
Cu7_6 O7_5 1_555 1_555
Cu10_3 O8_4 1_555 1_555
Cu10_5 O5_5 1_555 1_555
O19_5 Cu2_5 1_555 1_555
O20_5 Cu4 1_555 1_555
O21_5 Cu4 1_555 1_555
C8_5 C9_5 1_555 1_555
C8_5 C10_5 1_555 1_555
C13_5 C15_5 1_555 1_555
O16_5 C29_5 1_555 1_555
C28_5 C29_5 1_555 1_555
C28_5 C30_5 1_555 1_555
O19_2 C21_6 1_555 1_555
O21_2 C21_6 1_555 1_555
C17_6 O11_6 1_555 1_555
C18_6 C17_6 1_555 1_555
C19_6 C18_6 1_555 1_555
H17_6 C19_6 1_555 1_555
C20_6 C19_6 1_555 1_555
C21_6 C20_6 1_555 1_555
C22_6 C20_6 1_555 1_555
H18_6 C22_6 1_555 1_555
C23_6 C22_6 1_555 1_555
C24_6 C18_6 1_555 1_555
C23_6 C24_6 1_555 1_555
Cu5 O1_6 1_555 1_555
Cu2_6 O1_6 1_555 1_555
O1_6 C2_6 1_555 1_555
O2_6 Cu2_6 1_555 1_555
O3_6 Cu2_6 1_555 1_555
O4_6 Cu2_6 1_555 1_555
C2_6 O3_6 1_555 1_555
C3_6 C2_6 1_555 1_555
C9_6 C3_6 1_555 1_555
H8_6 C9_6 1_555 1_555
H9_6 C11_6 1_555 1_555
C12_6 C11_6 1_555 1_555
H10_6 C12_6 1_555 1_555
Cu10_3 O9_6 1_555 1_555
O10_6 Cu10_3 1_555 1_555
O12_6 Cu10_3 1_555 1_555
O15_6 Cu5 1_555 1_555
O16_6 Cu2_6 1_555 1_555
C16_6 H16_6 1_555 1_555
C25_6 C16_6 1_555 1_555
C26_6 C25_6 1_555 1_555
C27_6 C26_6 1_555 1_555
H21_6 C27_6 1_555 1_555
C28_6 C27_6 1_555 1_555
C29_6 O15_6 1_555 1_555
C30_6 C16_6 1_555 1_555
H22_6 C30_6 1_555 1_555
Cu7_6 O9_6 1_555 1_555
O19_6 Cu2_6 1_555 1_555
O20_6 Cu5 1_555 1_555
O21_6 Cu5 1_555 1_555
O16_6 C29_6 1_555 1_555
C28_6 C29_6 1_555 1_555
C28_6 C30_6 1_555 1_555
O5_6 C6_6 1_555 1_555
O20 C6_6 1_555 1_555
O7_6 C14_6 1_555 1_555
O23_2 C14_6 1_555 1_555
C1_6 H5_6 1_555 1_555
H6_6 C4_6 1_555 1_555
C5_6 C4_6 1_555 1_555
C6_6 C5_6 1_555 1_555
C7_6 C5_6 1_555 1_555
H7_6 C7_6 1_555 1_555
C8_6 C7_6 1_555 1_555
C10_6 C1_6 1_555 1_555
C14_6 C13_6 1_555 1_555
C15_6 C1_6 1_555 1_555
H11_6 C15_6 1_555 1_555
Cu6_4 O7_6 1_555 1_555
Cu10_6 O5_6 1_555 1_555
C8_6 C10_6 1_555 1_555
C13_6 C15_6 1_555 1_555
Cu7_5 O1_7 1_555 1_555
Cu8_2 O1_7 1_555 1_555
O2_7 Cu8_2 1_555 1_555
O4_7 Cu8_2 1_555 1_555
O22_3 C14_7 1_555 1_555
O8_5 C14_7 1_555 1_555
C1_7 H5_7 1_555 1_555
C10_7 C1_7 1_555 1_555
C11_7 C10_7 1_555 1_555
C12_7 C11_7 1_555 1_555
H10_7 C12_7 1_555 1_555
C13_7 C12_7 1_555 1_555
C14_7 C13_7 1_555 1_555
C15_7 C1_7 1_555 1_555
H11_7 C15_7 1_555 1_555
Cu10_4 O17_2 1_555 1_555
O17_2 C17_7 1_555 1_555
O10_7 Cu10_4 1_555 1_555
O11_7 Cu10_4 1_555 1_555
O12_7 Cu10_4 1_555 1_555
O19_6 C21_7 1_555 1_555
O21_6 C21_7 1_555 1_555
O15_7 Cu7_5 1_555 1_555
O16_7 Cu8_2 1_555 1_555
C16_7 H16_7 1_555 1_555
C17_7 O11_7 1_555 1_555
C18_7 C17_7 1_555 1_555
C19_7 C18_7 1_555 1_555
H17_7 C19_7 1_555 1_555
C20_7 C19_7 1_555 1_555
C21_7 C20_7 1_555 1_555
C22_7 C20_7 1_555 1_555
H18_7 C22_7 1_555 1_555
C23_7 C22_7 1_555 1_555
C24_7 C18_7 1_555 1_555
H19_7 C24_7 1_555 1_555
C25_7 C16_7 1_555 1_555
C26_7 C25_7 1_555 1_555
H20_7 C26_7 1_555 1_555
C27_7 C26_7 1_555 1_555
H21_7 C27_7 1_555 1_555
C28_7 C27_7 1_555 1_555
C29_7 O15_7 1_555 1_555
C30_7 C16_7 1_555 1_555
H22_7 C30_7 1_555 1_555
Cu10_5 O8_5 1_555 1_555
O23_3 Cu10_4 1_555 1_555
C13_7 C15_7 1_555 1_555
O16_7 C29_7 1_555 1_555
C23_7 C24_7 1_555 1_555
C23_7 C25_7 1_555 1_555
C28_7 C29_7 1_555 1_555
C28_7 C30_7 1_555 1_555
O18 C6_7 1_555 1_555
O20_5 C6_7 1_555 1_555
C2_7 O3_7 1_555 1_555
C3_7 C2_7 1_555 1_555
C4_7 C3_7 1_555 1_555
H6_7 C4_7 1_555 1_555
C5_7 C4_7 1_555 1_555
C6_7 C5_7 1_555 1_555
C7_7 C5_7 1_555 1_555
H7_7 C7_7 1_555 1_555
C8_7 C7_7 1_555 1_555
C9_7 C3_7 1_555 1_555
C8_7 C9_7 1_555 1_555
Cu6 O1_8 1_555 1_555
Cu8_3 O1_8 1_555 1_555
O2_8 Cu8_3 1_555 1_555
O4_8 Cu8_3 1_555 1_555
C1_8 H5_8 1_555 1_555
C10_8 C1_8 1_555 1_555
O19_4 C21_8 1_555 1_555
O21_4 C21_8 1_555 1_555
O15_8 Cu6 1_555 1_555
O16_8 Cu8_3 1_555 1_555
C16_8 H16_8 1_555 1_555
H17_8 C19_8 1_555 1_555
C20_8 C19_8 1_555 1_555
C21_8 C20_8 1_555 1_555
C22_8 C20_8 1_555 1_555
H18_8 C22_8 1_555 1_555
C23_8 C22_8 1_555 1_555
C25_8 C16_8 1_555 1_555
C29_8 O15_8 1_555 1_555
C30_8 C16_8 1_555 1_555
H22_8 C30_8 1_555 1_555
O16_8 C29_8 1_555 1_555
C23_8 C25_8 1_555 1_555
C28_8 C29_8 1_555 1_555
C28_8 C30_8 1_555 1_555
O18_2 C6_8 1_555 1_555
O20_6 C6_8 1_555 1_555
C2_8 O3_8 1_555 1_555
C3_8 C2_8 1_555 1_555
C4_8 C3_8 1_555 1_555
H6_8 C4_8 1_555 1_555
C5_8 C4_8 1_555 1_555
C6_8 C5_8 1_555 1_555
C7_8 C5_8 1_555 1_555
H7_8 C7_8 1_555 1_555
C8_8 C7_8 1_555 1_555
C9_8 C3_8 1_555 1_555
C8_8 C9_8 1_555 1_555
O22 C14_8 1_555 1_555
O8_6 C14_8 1_555 1_555
C12_8 C11_8 1_555 1_555
H10_8 C12_8 1_555 1_555
C13_8 C12_8 1_555 1_555
C14_8 C13_8 1_555 1_555
H11_8 C15_8 1_555 1_555
Cu10_5 O17_3 1_555 1_555
O17_3 C17_8 1_555 1_555
O10_8 Cu10_5 1_555 1_555
O11_8 Cu10_5 1_555 1_555
O12_8 Cu10_5 1_555 1_555
C17_8 O11_8 1_555 1_555
C18_8 C17_8 1_555 1_555
C24_8 C18_8 1_555 1_555
H19_8 C24_8 1_555 1_555
H20_8 C26_8 1_555 1_555
C27_8 C26_8 1_555 1_555
H21_8 C27_8 1_555 1_555
Cu10_6 O8_6 1_555 1_555
C13_8 C15_8 1_555 1_555
O22_2 C14_9 1_555 1_555
O23_3 C14_9 1_555 1_555
C12_9 C11_9 1_555 1_555
H10_9 C12_9 1_555 1_555
C13_9 C12_9 1_555 1_555
C14_9 C13_9 1_555 1_555
H11_9 C15_9 1_555 1_555
Cu10_6 O17 1_555 1_555
O17 C17_9 1_555 1_555
O10_9 Cu10_6 1_555 1_555
O11_9 Cu10_6 1_555 1_555
O12_9 Cu10_6 1_555 1_555
C17_9 O11_9 1_555 1_555
C18_9 C17_9 1_555 1_555
C24_9 C18_9 1_555 1_555
H19_9 C24_9 1_555 1_555
H20_9 C26_9 1_555 1_555
C27_9 C26_9 1_555 1_555
H21_9 C27_9 1_555 1_555
C13_9 C15_9 1_555 1_555
Cu7_3 O1_9 1_555 1_555
Cu8 O1_9 1_555 1_555
O2_9 Cu8 1_555 1_555
O4_9 Cu8 1_555 1_555
C1_9 H5_9 1_555 1_555
C10_9 C1_9 1_555 1_555
O19_5 C21_9 1_555 1_555
O21_5 C21_9 1_555 1_555
O15_9 Cu7_3 1_555 1_555
O16_9 Cu8 1_555 1_555
C16_9 H16_9 1_555 1_555
H17_9 C19_9 1_555 1_555
C20_9 C19_9 1_555 1_555
C21_9 C20_9 1_555 1_555
C22_9 C20_9 1_555 1_555
H18_9 C22_9 1_555 1_555
C23_9 C22_9 1_555 1_555
C25_9 C16_9 1_555 1_555
C29_9 O15_9 1_555 1_555
C30_9 C16_9 1_555 1_555
H22_9 C30_9 1_555 1_555
O16_9 C29_9 1_555 1_555
C23_9 C25_9 1_555 1_555
C28_9 C29_9 1_555 1_555
C28_9 C30_9 1_555 1_555
O18_3 C6_9 1_555 1_555
O20_4 C6_9 1_555 1_555
C2_9 O3_9 1_555 1_555
C3_9 C2_9 1_555 1_555
C4_9 C3_9 1_555 1_555
H6_9 C4_9 1_555 1_555
C5_9 C4_9 1_555 1_555
C6_9 C5_9 1_555 1_555
C7_9 C5_9 1_555 1_555
H7_9 C7_9 1_555 1_555
C8_9 C7_9 1_555 1_555
C9_9 C3_9 1_555 1_555
C8_9 C9_9 1_555 1_555

#END
