
###############################################################################
#
# This file contains modified crystal structure data generated from the
# MOF subset of the Cambridge Structural Database (CSD) v542 
# hosted by the Cambridge Crystallographic Data Centre (CCDC).
#
# This work is licensed under the Creative Commons
# Attribution-NonCommercial-ShareAlike 4.0 International License.
# To view a copy of this license, visit
# http://creativecommons.org/licenses/by-nc-sa/4.0/
# or send a letter to
# Creative Commons, PO Box 1866, Mountain View, CA 94042, USA.
#
# CIF created using the CSD Python API on 22 February 2021
# The structure has been converted into the P1 space group
# The structure has a 3D framework
# The original CSD entry CUJMEC is in the monoclinic crystal system
# The framework has been calculated to contain at least 10.0% void space
# The void calculation uses a probe of radius 1.32A, grid spacing 0.4
#
###############################################################################

data_CUJMEC
_chemical_formula_moiety         '(C176 H164 Co12 N48 O96)n'
_symmetry_cell_setting           triclinic
_symmetry_space_group_name_H-M   'P 1'
_symmetry_Int_Tables_number      1
_space_group_name_Hall           'P 1'
loop_
_symmetry_equiv_pos_site_id
_symmetry_equiv_pos_as_xyz
1 x,y,z
_cell_length_a                   21.3362(3)
_cell_length_b                   12.62310(14)
_cell_length_c                   26.3362(2)
_cell_angle_alpha                90
_cell_angle_beta                 109.2130(13)
_cell_angle_gamma                90
_cell_volume                     6698.03
loop_
_atom_site_label
_atom_site_type_symbol
_atom_site_fract_x
_atom_site_fract_y
_atom_site_fract_z
O3 O 0.35893(17) 0.1888(2) 0.82029(12)
O4 O 0.39611(18) 0.1957(2) 0.90946(12)
C6 C 0.3916(2) 0.1537(3) 0.86649(15)
C8 C 0.4113(2) 0.0015(3) 0.81386(15)
H4 H 0.424366 0.048298 0.789904
C13 C 0.4273(2) 0.0525(3) 0.86796(17)
H11 H 0.415922 0.004007 0.892135
H12 H 0.474673 0.065544 0.882287
Co4 Co 0.36628(2) 0.31252(4) 0.94992(2)
Co6 Co 0.31415(3) 0.31993(4) 0.81138(2)
Co1 Co 0.36628(2) 0.68748(4) 0.44992(2)
O1 O 0.76920(15) 0.7966(3) 0.90882(11)
O2 O 0.41164(15) 0.4333(2) 0.92961(11)
O5 O 0.53688(15) 0.9830(2) 0.81337(12)
O6 O 0.45413(14) 0.7286(2) 0.51732(12)
O7 O 0.72966(15) 0.8036(3) 0.82027(11)
O8 O 0.36126(16) 0.8160(2) 0.83344(14)
O9 O 0.53462(16) 0.6309(3) 0.82023(13)
O10 O 0.3590(2) 0.4440(3) 0.84250(14)
O11 O 0.45983(18) 0.8602(3) 0.56993(12)
O12 O 0.36795(15) 0.8216(2) 0.50765(12)
N1 N 0.30006(16) 0.3635(3) 0.73478(12)
N2 N 0.33827(16) 0.5921(2) 0.50522(12)
N3 N 0.44536(15) 0.9011(2) 0.81767(12)
N4 N 0.44556(16) 0.7203(3) 0.82448(13)
N5 N 0.53638(16) 0.8064(3) 0.81485(13)
N6 N 0.42803(18) 0.8049(3) 0.53262(13)
C1 C 0.3075(2) 0.4455(3) 0.63968(15)
C2 C 0.2694(2) 0.5591(3) 0.55780(16)
H1 H 0.229342 0.571113 0.563650
C3 C 0.72312(19) 0.8001(3) 0.86558(14)
C4 C 0.3160(2) 0.4934(3) 0.59141(15)
C5 C 0.28219(19) 0.6066(3) 0.51573(15)
H2 H 0.250158 0.651219 0.493426
C7 C 0.3993(2) 0.4761(3) 0.88570(16)
H3 H 0.363773 0.990164 0.798805
C9 C 0.4113(2) 0.6220(3) 0.82695(17)
H5 H 0.419061 0.571371 0.801970
H6 H 0.363939 0.635182 0.816238
C10 C 0.4351(3) 0.5762(4) 0.88296(18)
H7 H 0.482318 0.562149 0.893474
H8 H 0.427863 0.627232 0.908004
C11 C 0.3823(2) 0.5262(3) 0.53647(16)
H9 H 0.421186 0.513610 0.528874
C12 C 0.3734(2) 0.4758(4) 0.57936(17)
H10 H 0.405691 0.429911 0.600320
C14 C 0.2783(2) 0.4596(3) 0.71877(16)
H13 H 0.260685 0.499971 0.740374
C15 C 0.50831(19) 0.9028(3) 0.81571(14)
C16 C 0.5078(2) 0.7134(3) 0.82005(15)
C17 C 0.6546(2) 0.7978(3) 0.86737(15)
H14 H 0.648301 0.857226 0.888537
H15 H 0.648228 0.733211 0.885039
C18 C 0.2804(2) 0.5023(3) 0.67173(16)
H16 H 0.263560 0.569800 0.661447
C19 C 0.6033(2) 0.8029(3) 0.81209(16)
H17 H 0.610927 0.865569 0.793607
H18 H 0.607761 0.741384 0.791511
C20 C 0.4138(2) 0.8126(3) 0.82640(16)
C21 C 0.3283(2) 0.3454(3) 0.65557(17)
H19 H 0.345269 0.302891 0.634304
C22 C 0.3242(2) 0.3076(3) 0.70278(17)
H20 H 0.339149 0.239186 0.713133
Co5 Co 0.86628(2) 0.81252(4) 0.94992(2)
Co7 Co 0.81415(3) 0.81993(4) 0.81138(2)
O13 O 0.26920(15) 0.7034(3) 0.40882(11)
O14 O 0.41164(15) 0.5667(2) 0.42961(11)
O16 O 0.39611(18) 0.8043(2) 0.40946(12)
O17 O 0.22966(15) 0.3036(3) 0.82027(11)
O1_2 O 0.26920(15) 0.2966(3) 0.90882(11)
O5_2 O 0.03688(15) 0.4830(2) 0.81337(12)
O9_2 O 0.03462(16) 0.1309(3) 0.82023(13)
N5_2 N 0.03638(16) 0.3064(3) 0.81485(13)
C3_2 C 0.22312(19) 0.3001(3) 0.86558(14)
C15_2 C 0.00831(19) 0.4028(3) 0.81571(14)
C16_2 C 0.0078(2) 0.2134(3) 0.82005(15)
C17_2 C 0.1546(2) 0.2978(3) 0.86737(15)
H14_2 H 0.148301 0.357226 0.888537
H15_2 H 0.148228 0.233211 0.885039
C19_2 C 0.1033(2) 0.3029(3) 0.81209(16)
H17_2 H 0.110927 0.365569 0.793607
H18_2 H 0.107761 0.241384 0.791511
Co1_2 Co 0.86628(2) 0.18748(4) 0.44992(2)
O3_2 O 0.85893(17) 0.6888(2) 0.82029(12)
O4_2 O 0.89611(18) 0.6957(2) 0.90946(12)
O6_2 O 0.95413(14) 0.2286(2) 0.51732(12)
O8_2 O 0.86126(16) 0.3160(2) 0.83344(14)
O11_2 O 0.95983(18) 0.3602(3) 0.56993(12)
O12_2 O 0.86795(15) 0.3216(2) 0.50765(12)
N2_2 N 0.83827(16) 0.0921(2) 0.50522(12)
N3_2 N 0.94536(15) 0.4011(2) 0.81767(12)
N4_2 N 0.94556(16) 0.2203(3) 0.82448(13)
N6_2 N 0.92803(18) 0.3049(3) 0.53262(13)
C2_2 C 0.7694(2) 0.0591(3) 0.55780(16)
H1_2 H 0.729342 0.071113 0.563650
C5_2 C 0.78219(19) 0.1066(3) 0.51573(15)
H2_2 H 0.750158 0.151219 0.493426
C6_2 C 0.8916(2) 0.6537(3) 0.86649(15)
C8_2 C 0.9113(2) 0.5015(3) 0.81386(15)
H3_2 H 0.863773 0.490164 0.798805
H4_2 H 0.924366 0.548298 0.789904
C9_2 C 0.9113(2) 0.1220(3) 0.82695(17)
H5_2 H 0.919061 0.071371 0.801970
H6_2 H 0.863939 0.135182 0.816238
C10_2 C 0.9351(3) 0.0762(4) 0.88296(18)
H7_2 H 0.982318 0.062149 0.893474
H8_2 H 0.927863 0.127232 0.908004
C11_2 C 0.8823(2) 0.0262(3) 0.53647(16)
H9_2 H 0.921186 0.013610 0.528874
C13_2 C 0.9273(2) 0.5525(3) 0.86796(17)
H11_2 H 0.915922 0.504007 0.892135
H12_2 H 0.974673 0.565544 0.882287
H13_2 H 0.760685 -0.000029 0.740374
C18_2 C 0.7804(2) 0.0023(3) 0.67173(16)
H16_2 H 0.763560 0.069800 0.661447
C20_2 C 0.9138(2) 0.3126(3) 0.82640(16)
O13_2 O 0.76920(15) 0.2034(3) 0.40882(11)
O14_2 O 0.91164(15) 0.0667(2) 0.42961(11)
O16_2 O 0.89611(18) 0.3043(2) 0.40946(12)
O2_2 O 0.91164(15) 0.9333(2) 0.92961(11)
O10_2 O 0.8590(2) 0.9440(3) 0.84250(14)
N1_2 N 0.80006(16) 0.8635(3) 0.73478(12)
C1_2 C 0.8075(2) 0.9455(3) 0.63968(15)
C4_2 C 0.8160(2) 0.9934(3) 0.59141(15)
C7_2 C 0.8993(2) 0.9761(3) 0.88570(16)
C12_2 C 0.8734(2) 0.9758(4) 0.57936(17)
H10_2 H 0.905691 0.929911 0.600320
C14_2 C 0.7783(2) 0.9596(3) 0.71877(16)
H13_3 H 0.760685 0.999971 0.740374
C21_2 C 0.8283(2) 0.8454(3) 0.65557(17)
H19_2 H 0.845269 0.802891 0.634304
C22_2 C 0.8242(2) 0.8076(3) 0.70278(17)
H20_2 H 0.839149 0.739186 0.713133
Co2 Co 0.31415(3) 0.68007(4) 0.31138(2)
O5_3 O 0.53688(15) 0.0170(2) 0.31337(12)
O6_3 O 0.45413(14) 0.2714(2) 0.01732(12)
O7_2 O 0.72966(15) 0.1964(3) 0.32027(11)
O8_3 O 0.36126(16) 0.1840(2) 0.33344(14)
O9_3 O 0.53462(16) 0.3691(3) 0.32023(13)
O10_3 O 0.3590(2) 0.5560(3) 0.34250(14)
O11_3 O 0.45983(18) 0.1398(3) 0.06993(12)
O12_3 O 0.36795(15) 0.1784(2) 0.00765(12)
N1_3 N 0.30006(16) 0.6365(3) 0.23478(12)
N2_3 N 0.33827(16) 0.4079(2) 0.00522(12)
N3_3 N 0.44536(15) 0.0989(2) 0.31767(12)
N4_3 N 0.44556(16) 0.2797(3) 0.32448(13)
N5_3 N 0.53638(16) 0.1936(3) 0.31485(13)
N6_3 N 0.42803(18) 0.1951(3) 0.03262(13)
C1_3 C 0.3075(2) 0.5545(3) 0.13968(15)
C2_3 C 0.2694(2) 0.4409(3) 0.05780(16)
H1_3 H 0.229342 0.428887 0.063650
C3_3 C 0.72312(19) 0.1999(3) 0.36558(14)
C4_3 C 0.3160(2) 0.5066(3) 0.09141(15)
C5_3 C 0.28219(19) 0.3934(3) 0.01573(15)
C7_3 C 0.3993(2) 0.5239(3) 0.38570(16)
H3_3 H 0.363773 0.009836 0.298805
C9_3 C 0.4113(2) 0.3780(3) 0.32695(17)
H5_3 H 0.419061 0.428629 0.301970
H6_3 H 0.363939 0.364818 0.316238
C10_3 C 0.4351(3) 0.4238(4) 0.38296(18)
H7_3 H 0.482318 0.437851 0.393474
H8_3 H 0.427863 0.372768 0.408004
C11_3 C 0.3823(2) 0.4738(3) 0.03647(16)
H9_3 H 0.421186 0.486390 0.028874
C12_3 C 0.3734(2) 0.5242(4) 0.07936(17)
H10_3 H 0.405691 0.570089 0.100320
C14_3 C 0.2783(2) 0.5404(3) 0.21877(16)
H13_4 H 0.260685 0.500029 0.240374
C15_3 C 0.50831(19) 0.0972(3) 0.31571(14)
C16_3 C 0.5078(2) 0.2866(3) 0.32005(15)
C17_3 C 0.6546(2) 0.2022(3) 0.36737(15)
H14_3 H 0.648301 0.142774 0.388537
H15_3 H 0.648228 0.266789 0.385039
C18_3 C 0.2804(2) 0.4977(3) 0.17173(16)
H16_3 H 0.263560 0.430200 0.161447
C19_3 C 0.6033(2) 0.1971(3) 0.31209(16)
H17_3 H 0.610927 0.134431 0.293607
H18_3 H 0.607761 0.258616 0.291511
C20_3 C 0.4138(2) 0.1874(3) 0.32640(16)
C21_3 C 0.3283(2) 0.6546(3) 0.15557(17)
H19_3 H 0.345269 0.697109 0.134304
C22_3 C 0.3242(2) 0.6924(3) 0.20278(17)
H20_3 H 0.339149 0.760814 0.213133
Co7_2 Co 0.81415(3) 0.18007(4) 0.31138(2)
O15 O 0.35893(17) 0.8112(2) 0.32029(12)
O17_2 O 0.22966(15) 0.6964(3) 0.32027(11)
H2_3 H 0.250158 0.348781 0.993426
C6_3 C 0.3916(2) 0.8463(3) 0.36649(15)
C8_3 C 0.4113(2) 0.9985(3) 0.31386(15)
H4_3 H 0.424366 0.951702 0.289904
C13_3 C 0.4273(2) 0.9475(3) 0.36796(17)
H11_3 H 0.415922 0.995993 0.392135
H12_3 H 0.474673 0.934456 0.382287
O5_4 O 0.03688(15) 0.5170(2) 0.31337(12)
O9_4 O 0.03462(16) 0.8691(3) 0.32023(13)
N5_4 N 0.03638(16) 0.6936(3) 0.31485(13)
C3_4 C 0.22312(19) 0.6999(3) 0.36558(14)
C15_4 C 0.00831(19) 0.5972(3) 0.31571(14)
C16_4 C 0.0078(2) 0.7866(3) 0.32005(15)
C17_4 C 0.1546(2) 0.7022(3) 0.36737(15)
H14_4 H 0.148301 0.642774 0.388537
H15_4 H 0.148228 0.766789 0.385039
C19_4 C 0.1033(2) 0.6971(3) 0.31209(16)
H17_4 H 0.110927 0.634431 0.293607
H18_4 H 0.107761 0.758616 0.291511
O10_4 O 0.8590(2) 0.0560(3) 0.34250(14)
N1_4 N 0.80006(16) 0.1365(3) 0.23478(12)
C1_4 C 0.8075(2) 0.0545(3) 0.13968(15)
C4_4 C 0.8160(2) 0.0066(3) 0.09141(15)
C7_4 C 0.8993(2) 0.0239(3) 0.38570(16)
C12_4 C 0.8734(2) 0.0242(4) 0.07936(17)
H10_4 H 0.905691 0.070089 0.100320
C14_4 C 0.7783(2) 0.0404(3) 0.21877(16)
H13_5 H 0.760685 0.000029 0.240374
C21_4 C 0.8283(2) 0.1546(3) 0.15557(17)
H19_4 H 0.845269 0.197109 0.134304
C22_4 C 0.8242(2) 0.1924(3) 0.20278(17)
H20_4 H 0.839149 0.260814 0.213133
O15_2 O 0.85893(17) 0.3112(2) 0.32029(12)
O6_4 O 0.95413(14) 0.7714(2) 0.01732(12)
O8_4 O 0.86126(16) 0.6840(2) 0.33344(14)
O11_4 O 0.95983(18) 0.6398(3) 0.06993(12)
O12_4 O 0.86795(15) 0.6784(2) 0.00765(12)
N2_4 N 0.83827(16) 0.9079(2) 0.00522(12)
N3_4 N 0.94536(15) 0.5989(2) 0.31767(12)
N4_4 N 0.94556(16) 0.7797(3) 0.32448(13)
N6_4 N 0.92803(18) 0.6951(3) 0.03262(13)
C2_4 C 0.7694(2) 0.9409(3) 0.05780(16)
H1_4 H 0.729342 0.928887 0.063650
C5_4 C 0.78219(19) 0.8934(3) 0.01573(15)
C6_4 C 0.8916(2) 0.3463(3) 0.36649(15)
C8_4 C 0.9113(2) 0.4985(3) 0.31386(15)
H3_4 H 0.863773 0.509836 0.298805
H4_4 H 0.924366 0.451702 0.289904
C9_4 C 0.9113(2) 0.8780(3) 0.32695(17)
H5_4 H 0.919061 0.928629 0.301970
H6_4 H 0.863939 0.864818 0.316238
C10_4 C 0.9351(3) 0.9238(4) 0.38296(18)
H7_4 H 0.982318 0.937851 0.393474
H8_4 H 0.927863 0.872768 0.408004
C11_4 C 0.8823(2) 0.9738(3) 0.03647(16)
H9_4 H 0.921186 0.986390 0.028874
C13_4 C 0.9273(2) 0.4475(3) 0.36796(17)
H11_4 H 0.915922 0.495993 0.392135
H12_4 H 0.974673 0.434456 0.382287
H13_6 H 0.760685 1.000029 0.240374
C18_4 C 0.7804(2) 0.9977(3) 0.17173(16)
H16_4 H 0.763560 0.930200 0.161447
C20_4 C 0.9138(2) 0.6874(3) 0.32640(16)
H2_4 H 0.750158 0.848781 0.993426
O3_3 O 0.64107(17) 0.1888(2) 0.67971(12)
O4_3 O 0.60389(18) 0.1957(2) 0.59054(12)
C6_5 C 0.6084(2) 0.1537(3) 0.63351(15)
C8_5 C 0.5887(2) 0.0015(3) 0.68614(15)
H4_5 H 0.575634 0.048298 0.710096
C13_5 C 0.5727(2) 0.0525(3) 0.63204(17)
H11_5 H 0.584078 0.004007 0.607865
H12_5 H 0.525327 0.065544 0.617713
Co4_2 Co 0.63372(2) 0.31252(4) 0.55008(2)
Co6_2 Co 0.68585(3) 0.31993(4) 0.68862(2)
Co1_3 Co 0.63372(2) 0.68748(4) 0.05008(2)
H2_5 H 0.749842 0.651219 0.006574
O13_3 O 0.73080(15) 0.7034(3) 0.09118(11)
O14_3 O 0.58836(15) 0.5667(2) 0.07039(11)
O16_3 O 0.60389(18) 0.8043(2) 0.09054(12)
O1_3 O 0.23080(15) 0.7966(3) 0.59118(11)
O2_3 O 0.58836(15) 0.4333(2) 0.57039(11)
O5_5 O 0.46312(15) 0.9830(2) 0.68663(12)
O6_5 O 0.54587(14) 0.7286(2) 0.98268(12)
O7_3 O 0.27034(15) 0.8036(3) 0.67973(11)
O8_5 O 0.63874(16) 0.8160(2) 0.66656(14)
O9_5 O 0.46538(16) 0.6309(3) 0.67977(13)
O10_5 O 0.6410(2) 0.4440(3) 0.65750(14)
O11_5 O 0.54017(18) 0.8602(3) 0.93007(12)
O12_5 O 0.63205(15) 0.8216(2) 0.99235(12)
N1_5 N 0.69994(16) 0.3635(3) 0.76522(12)
N2_5 N 0.66173(16) 0.5921(2) 0.99478(12)
N3_5 N 0.55464(15) 0.9011(2) 0.68233(12)
N4_5 N 0.55444(16) 0.7203(3) 0.67552(13)
N5_5 N 0.46362(16) 0.8064(3) 0.68515(13)
N6_5 N 0.57197(18) 0.8049(3) 0.96738(13)
C1_5 C 0.6925(2) 0.4455(3) 0.86032(15)
C2_5 C 0.7306(2) 0.5591(3) 0.94220(16)
H1_5 H 0.770658 0.571113 0.936350
C3_5 C 0.27688(19) 0.8001(3) 0.63442(14)
C4_5 C 0.6840(2) 0.4934(3) 0.90859(15)
C5_5 C 0.71781(19) 0.6066(3) 0.98427(15)
C7_5 C 0.6007(2) 0.4761(3) 0.61430(16)
H3_5 H 0.636227 0.990164 0.701195
C9_5 C 0.5887(2) 0.6220(3) 0.67305(17)
H5_5 H 0.580939 0.571371 0.698030
H6_5 H 0.636061 0.635182 0.683762
C10_5 C 0.5649(3) 0.5762(4) 0.61704(18)
H7_5 H 0.517682 0.562149 0.606526
H8_5 H 0.572137 0.627232 0.591996
C11_5 C 0.6177(2) 0.5262(3) 0.96353(16)
H9_5 H 0.578814 0.513610 0.971126
C12_5 C 0.6266(2) 0.4758(4) 0.92064(17)
H10_5 H 0.594309 0.429911 0.899680
C14_5 C 0.7217(2) 0.4596(3) 0.78123(16)
H13_7 H 0.739315 0.499971 0.759626
C15_5 C 0.49169(19) 0.9028(3) 0.68429(14)
C16_5 C 0.4922(2) 0.7134(3) 0.67995(15)
C17_5 C 0.3454(2) 0.7978(3) 0.63263(15)
H14_5 H 0.351699 0.857226 0.611463
H15_5 H 0.351772 0.733211 0.614961
C18_5 C 0.7196(2) 0.5023(3) 0.82827(16)
H16_5 H 0.736440 0.569800 0.838553
C19_5 C 0.3967(2) 0.8029(3) 0.68791(16)
H17_5 H 0.389073 0.865569 0.706393
H18_5 H 0.392239 0.741384 0.708489
C20_5 C 0.5862(2) 0.8126(3) 0.67360(16)
C21_5 C 0.6717(2) 0.3454(3) 0.84443(17)
H19_5 H 0.654731 0.302891 0.865696
C22_5 C 0.6758(2) 0.3076(3) 0.79722(17)
H20_5 H 0.660851 0.239186 0.786867
Co5_2 Co 0.13372(2) 0.81252(4) 0.55008(2)
Co7_3 Co 0.18585(3) 0.81993(4) 0.68862(2)
O17_3 O 0.77034(15) 0.3036(3) 0.67973(11)
Co1_4 Co 0.13372(2) 0.18748(4) 0.05008(2)
H2_6 H 0.249842 0.151219 0.006574
O13_4 O 0.23080(15) 0.2034(3) 0.09118(11)
O14_4 O 0.08836(15) 0.0667(2) 0.07039(11)
O16_4 O 0.10389(18) 0.3043(2) 0.09054(12)
O3_4 O 0.14107(17) 0.6888(2) 0.67971(12)
O4_4 O 0.10389(18) 0.6957(2) 0.59054(12)
O6_6 O 0.04587(14) 0.2286(2) 0.98268(12)
O8_6 O 0.13874(16) 0.3160(2) 0.66656(14)
O11_6 O 0.04017(18) 0.3602(3) 0.93007(12)
O12_6 O 0.13205(15) 0.3216(2) 0.99235(12)
N2_6 N 0.16173(16) 0.0921(2) 0.99478(12)
N3_6 N 0.05464(15) 0.4011(2) 0.68233(12)
N4_6 N 0.05444(16) 0.2203(3) 0.67552(13)
N6_6 N 0.07197(18) 0.3049(3) 0.96738(13)
C2_6 C 0.2306(2) 0.0591(3) 0.94220(16)
H1_6 H 0.270658 0.071113 0.936350
C5_6 C 0.21781(19) 0.1066(3) 0.98427(15)
C6_6 C 0.1084(2) 0.6537(3) 0.63351(15)
C8_6 C 0.0887(2) 0.5015(3) 0.68614(15)
H3_6 H 0.136227 0.490164 0.701195
H4_6 H 0.075634 0.548298 0.710096
C9_6 C 0.0887(2) 0.1220(3) 0.67305(17)
H5_6 H 0.080939 0.071371 0.698030
H6_6 H 0.136061 0.135182 0.683762
C10_6 C 0.0649(3) 0.0762(4) 0.61704(18)
H7_6 H 0.017682 0.062149 0.606526
H8_6 H 0.072137 0.127232 0.591996
C11_6 C 0.1177(2) 0.0262(3) 0.96353(16)
H9_6 H 0.078814 0.013610 0.971126
C13_6 C 0.0727(2) 0.5525(3) 0.63204(17)
H11_6 H 0.084078 0.504007 0.607865
H12_6 H 0.025327 0.565544 0.617713
H13_8 H 0.239315 -0.000029 0.759626
C18_6 C 0.2196(2) 0.0023(3) 0.82827(16)
H16_6 H 0.236440 0.069800 0.838553
C20_6 C 0.0862(2) 0.3126(3) 0.67360(16)
O2_4 O 0.08836(15) 0.9333(2) 0.57039(11)
O10_6 O 0.1410(2) 0.9440(3) 0.65750(14)
N1_6 N 0.19994(16) 0.8635(3) 0.76522(12)
C1_6 C 0.1925(2) 0.9455(3) 0.86032(15)
C4_6 C 0.1840(2) 0.9934(3) 0.90859(15)
C7_6 C 0.1007(2) 0.9761(3) 0.61430(16)
C12_6 C 0.1266(2) 0.9758(4) 0.92064(17)
H10_6 H 0.094309 0.929911 0.899680
C14_6 C 0.2217(2) 0.9596(3) 0.78123(16)
H13_9 H 0.239315 0.999971 0.759626
C21_6 C 0.1717(2) 0.8454(3) 0.84443(17)
H19_6 H 0.154731 0.802891 0.865696
C22_6 C 0.1758(2) 0.8076(3) 0.79722(17)
H20_6 H 0.160851 0.739186 0.786867
O1_4 O 0.73080(15) 0.2966(3) 0.59118(11)
O5_6 O 0.96312(15) 0.4830(2) 0.68663(12)
O9_6 O 0.96538(16) 0.1309(3) 0.67977(13)
N5_6 N 0.96362(16) 0.3064(3) 0.68515(13)
C3_6 C 0.77688(19) 0.3001(3) 0.63442(14)
C15_6 C 0.99169(19) 0.4028(3) 0.68429(14)
C16_6 C 0.9922(2) 0.2134(3) 0.67995(15)
C17_6 C 0.8454(2) 0.2978(3) 0.63263(15)
H14_6 H 0.851699 0.357226 0.611463
H15_6 H 0.851772 0.233211 0.614961
C19_6 C 0.8967(2) 0.3029(3) 0.68791(16)
H17_6 H 0.889073 0.365569 0.706393
H18_6 H 0.892239 0.241384 0.708489
Co2_2 Co 0.68585(3) 0.68007(4) 0.18862(2)
O5_7 O 0.46312(15) 0.0170(2) 0.18663(12)
O6_7 O 0.54587(14) 0.2714(2) 0.48268(12)
O7_4 O 0.27034(15) 0.1964(3) 0.17973(11)
O8_7 O 0.63874(16) 0.1840(2) 0.16656(14)
O9_7 O 0.46538(16) 0.3691(3) 0.17977(13)
O10_7 O 0.6410(2) 0.5560(3) 0.15750(14)
O11_7 O 0.54017(18) 0.1398(3) 0.43007(12)
O12_7 O 0.63205(15) 0.1784(2) 0.49235(12)
N1_7 N 0.69994(16) 0.6365(3) 0.26522(12)
N2_7 N 0.66173(16) 0.4079(2) 0.49478(12)
N3_7 N 0.55464(15) 0.0989(2) 0.18233(12)
N4_7 N 0.55444(16) 0.2797(3) 0.17552(13)
N5_7 N 0.46362(16) 0.1936(3) 0.18515(13)
N6_7 N 0.57197(18) 0.1951(3) 0.46738(13)
C1_7 C 0.6925(2) 0.5545(3) 0.36032(15)
C2_7 C 0.7306(2) 0.4409(3) 0.44220(16)
H1_7 H 0.770658 0.428887 0.436350
C3_7 C 0.27688(19) 0.1999(3) 0.13442(14)
C4_7 C 0.6840(2) 0.5066(3) 0.40859(15)
C5_7 C 0.71781(19) 0.3934(3) 0.48427(15)
H2_7 H 0.749842 0.348781 0.506574
C7_7 C 0.6007(2) 0.5239(3) 0.11430(16)
H3_7 H 0.636227 0.009836 0.201195
C9_7 C 0.5887(2) 0.3780(3) 0.17305(17)
H5_7 H 0.580939 0.428629 0.198030
H6_7 H 0.636061 0.364818 0.183762
C10_7 C 0.5649(3) 0.4238(4) 0.11704(18)
H7_7 H 0.517682 0.437851 0.106526
H8_7 H 0.572137 0.372768 0.091996
C11_7 C 0.6177(2) 0.4738(3) 0.46353(16)
H9_7 H 0.578814 0.486390 0.471126
C12_7 C 0.6266(2) 0.5242(4) 0.42064(17)
H10_7 H 0.594309 0.570089 0.399680
C14_7 C 0.7217(2) 0.5404(3) 0.28123(16)
H13_10 H 0.739315 0.500029 0.259626
C15_7 C 0.49169(19) 0.0972(3) 0.18429(14)
C16_7 C 0.4922(2) 0.2866(3) 0.17995(15)
C17_7 C 0.3454(2) 0.2022(3) 0.13263(15)
H14_7 H 0.351699 0.142774 0.111463
H15_7 H 0.351772 0.266789 0.114961
C18_7 C 0.7196(2) 0.4977(3) 0.32827(16)
H16_7 H 0.736440 0.430200 0.338553
C19_7 C 0.3967(2) 0.1971(3) 0.18791(16)
H17_7 H 0.389073 0.134431 0.206393
H18_7 H 0.392239 0.258616 0.208489
C20_7 C 0.5862(2) 0.1874(3) 0.17360(16)
C21_7 C 0.6717(2) 0.6546(3) 0.34443(17)
H19_7 H 0.654731 0.697109 0.365696
C22_7 C 0.6758(2) 0.6924(3) 0.29722(17)
H20_7 H 0.660851 0.760814 0.286867
Co7_4 Co 0.18585(3) 0.18007(4) 0.18862(2)
O15_3 O 0.64107(17) 0.8112(2) 0.17971(12)
O17_4 O 0.77034(15) 0.6964(3) 0.17973(11)
C6_7 C 0.6084(2) 0.8463(3) 0.13351(15)
C8_7 C 0.5887(2) 0.9985(3) 0.18614(15)
H4_7 H 0.575634 0.951702 0.210096
C13_7 C 0.5727(2) 0.9475(3) 0.13204(17)
H11_7 H 0.584078 0.995993 0.107865
H12_7 H 0.525327 0.934456 0.117713
O10_8 O 0.1410(2) 0.0560(3) 0.15750(14)
N1_8 N 0.19994(16) 0.1365(3) 0.26522(12)
C1_8 C 0.1925(2) 0.0545(3) 0.36032(15)
C4_8 C 0.1840(2) 0.0066(3) 0.40859(15)
C7_8 C 0.1007(2) 0.0239(3) 0.11430(16)
C12_8 C 0.1266(2) 0.0242(4) 0.42064(17)
H10_8 H 0.094309 0.070089 0.399680
C14_8 C 0.2217(2) 0.0404(3) 0.28123(16)
H13_11 H 0.239315 0.000029 0.259626
C21_8 C 0.1717(2) 0.1546(3) 0.34443(17)
H19_8 H 0.154731 0.197109 0.365696
C22_8 C 0.1758(2) 0.1924(3) 0.29722(17)
H20_8 H 0.160851 0.260814 0.286867
O15_4 O 0.14107(17) 0.3112(2) 0.17971(12)
O6_8 O 0.04587(14) 0.7714(2) 0.48268(12)
O8_8 O 0.13874(16) 0.6840(2) 0.16656(14)
O11_8 O 0.04017(18) 0.6398(3) 0.43007(12)
O12_8 O 0.13205(15) 0.6784(2) 0.49235(12)
N2_8 N 0.16173(16) 0.9079(2) 0.49478(12)
N3_8 N 0.05464(15) 0.5989(2) 0.18233(12)
N4_8 N 0.05444(16) 0.7797(3) 0.17552(13)
N6_8 N 0.07197(18) 0.6951(3) 0.46738(13)
C2_8 C 0.2306(2) 0.9409(3) 0.44220(16)
H1_8 H 0.270658 0.928887 0.436350
C5_8 C 0.21781(19) 0.8934(3) 0.48427(15)
H2_8 H 0.249842 0.848781 0.506574
C6_8 C 0.1084(2) 0.3463(3) 0.13351(15)
C8_8 C 0.0887(2) 0.4985(3) 0.18614(15)
H3_8 H 0.136227 0.509836 0.201195
H4_8 H 0.075634 0.451702 0.210096
C9_8 C 0.0887(2) 0.8780(3) 0.17305(17)
H5_8 H 0.080939 0.928629 0.198030
H6_8 H 0.136061 0.864818 0.183762
C10_8 C 0.0649(3) 0.9238(4) 0.11704(18)
H7_8 H 0.017682 0.937851 0.106526
H8_8 H 0.072137 0.872768 0.091996
C11_8 C 0.1177(2) 0.9738(3) 0.46353(16)
H9_8 H 0.078814 0.986390 0.471126
C13_8 C 0.0727(2) 0.4475(3) 0.13204(17)
H11_8 H 0.084078 0.495993 0.107865
H12_8 H 0.025327 0.434456 0.117713
H13_12 H 0.239315 1.000029 0.259626
C18_8 C 0.2196(2) 0.9977(3) 0.32827(16)
H16_8 H 0.236440 0.930200 0.338553
C20_8 C 0.0862(2) 0.6874(3) 0.17360(16)
O5_8 O 0.96312(15) 0.5170(2) 0.18663(12)
O9_8 O 0.96538(16) 0.8691(3) 0.17977(13)
N5_8 N 0.96362(16) 0.6936(3) 0.18515(13)
C3_8 C 0.77688(19) 0.6999(3) 0.13442(14)
C15_8 C 0.99169(19) 0.5972(3) 0.18429(14)
C16_8 C 0.9922(2) 0.7866(3) 0.17995(15)
C17_8 C 0.8454(2) 0.7022(3) 0.13263(15)
H14_8 H 0.851699 0.642774 0.111463
H15_8 H 0.851772 0.766789 0.114961
C19_8 C 0.8967(2) 0.6971(3) 0.18791(16)
H17_8 H 0.889073 0.634431 0.206393
H18_8 H 0.892239 0.758616 0.208489
loop_
_geom_bond_atom_site_label_1
_geom_bond_atom_site_label_2
_geom_bond_site_symmetry_1
_geom_bond_site_symmetry_2
O3 C6 1_555 1_555
O4 C6 1_555 1_555
C6 C13 1_555 1_555
H4 C8 1_555 1_555
C13 C8 1_555 1_555
H11 C13 1_555 1_555
H12 C13 1_555 1_555
Co4 O4 1_555 1_555
Co6 O3 1_555 1_555
Co1 O6 1_555 1_555
Co6 O10 1_555 1_555
O1 C3 1_555 1_555
O2 C7 1_555 1_555
O5 C15 1_555 1_555
O6 N6 1_555 1_555
O7 C3 1_555 1_555
O8 C20 1_555 1_555
O9 C16 1_555 1_555
O10 C7 1_555 1_555
O11 N6 1_555 1_555
O12 Co1 1_555 1_555
N1 Co6 1_555 1_555
N2 Co1 1_555 1_555
N4 C9 1_555 1_555
N5 C15 1_555 1_555
N6 O12 1_555 1_555
C1 C4 1_555 1_555
C2 H1 1_555 1_555
C3 C17 1_555 1_555
C4 C2 1_555 1_555
C5 N2 1_555 1_555
H2 C5 1_555 1_555
C7 C10 1_555 1_555
C9 H5 1_555 1_555
H6 C9 1_555 1_555
C10 C9 1_555 1_555
H7 C10 1_555 1_555
H8 C10 1_555 1_555
C11 N2 1_555 1_555
H9 C11 1_555 1_555
C12 C4 1_555 1_555
H10 C12 1_555 1_555
C14 N1 1_555 1_555
H13 C14 1_555 1_555
C15 N3 1_555 1_555
C16 N4 1_555 1_555
C17 H14 1_555 1_555
H15 C17 1_555 1_555
C18 C1 1_555 1_555
H16 C18 1_555 1_555
C19 N5 1_555 1_555
H17 C19 1_555 1_555
H18 C19 1_555 1_555
C20 N3 1_555 1_555
C21 C1 1_555 1_555
H19 C21 1_555 1_555
C22 N1 1_555 1_555
H20 C22 1_555 1_555
Co4 O2 1_555 1_555
Co5 O1 1_555 1_555
Co7 O7 1_555 1_555
O13 Co1 1_555 1_555
O14 Co1 1_555 1_555
O16 Co1 1_555 1_555
O17 Co6 1_555 1_555
N4 C20 1_555 1_555
N5 C16 1_555 1_555
C2 C5 1_555 1_555
C11 C12 1_555 1_555
C14 C18 1_555 1_555
C17 C19 1_555 1_555
C21 C22 1_555 1_555
O1_2 C3_2 1_555 1_555
O5_2 C15_2 1_555 1_555
O17 C3_2 1_555 1_555
O9_2 C16_2 1_555 1_555
N5_2 C15_2 1_555 1_555
C3_2 C17_2 1_555 1_555
C17_2 H14_2 1_555 1_555
H15_2 C17_2 1_555 1_555
C19_2 N5_2 1_555 1_555
H17_2 C19_2 1_555 1_555
H18_2 C19_2 1_555 1_555
Co4 O1_2 1_555 1_555
N5_2 C16_2 1_555 1_555
C17_2 C19_2 1_555 1_555
Co1_2 O6_2 1_555 1_555
O3_2 C6_2 1_555 1_555
O4_2 C6_2 1_555 1_555
O6_2 N6_2 1_555 1_555
O8_2 C20_2 1_555 1_555
O11_2 N6_2 1_555 1_555
O12_2 Co1_2 1_555 1_555
N2_2 Co1_2 1_555 1_555
N3_2 C8_2 1_555 1_555
N4_2 C9_2 1_555 1_555
N6_2 O12_2 1_555 1_555
C2_2 H1_2 1_555 1_555
C5_2 N2_2 1_555 1_555
H2_2 C5_2 1_555 1_555
C6_2 C13_2 1_555 1_555
C8_2 H3_2 1_555 1_555
H4_2 C8_2 1_555 1_555
C9_2 H5_2 1_555 1_555
H6_2 C9_2 1_555 1_555
C10_2 C9_2 1_555 1_555
H7_2 C10_2 1_555 1_555
H8_2 C10_2 1_555 1_555
C11_2 N2_2 1_555 1_555
H9_2 C11_2 1_555 1_555
C13_2 C8_2 1_555 1_555
H11_2 C13_2 1_555 1_555
H12_2 C13_2 1_555 1_555
H16_2 C18_2 1_555 1_555
C20_2 N3_2 1_555 1_555
Co5 O4_2 1_555 1_555
Co7 O3_2 1_555 1_555
O13_2 Co1_2 1_555 1_555
O14_2 Co1_2 1_555 1_555
O16_2 Co1_2 1_555 1_555
N4_2 C20_2 1_555 1_555
C2_2 C5_2 1_555 1_555
Co7 O10_2 1_555 1_555
O2_2 C7_2 1_555 1_555
O10_2 C7_2 1_555 1_555
N1_2 Co7 1_555 1_555
C1_2 C4_2 1_555 1_555
C12_2 C4_2 1_555 1_555
H10_2 C12_2 1_555 1_555
C14_2 N1_2 1_555 1_555
H13_3 C14_2 1_555 1_555
C21_2 C1_2 1_555 1_555
H19_2 C21_2 1_555 1_555
C22_2 N1_2 1_555 1_555
H20_2 C22_2 1_555 1_555
Co5 O2_2 1_555 1_555
C21_2 C22_2 1_555 1_555
Co2 O10_3 1_555 1_555
O13_2 C3_3 1_555 1_555
O14 C7_3 1_555 1_555
O5_3 C15_3 1_555 1_555
O6_3 N6_3 1_555 1_555
O7_2 C3_3 1_555 1_555
O8_3 C20_3 1_555 1_555
O9_3 C16_3 1_555 1_555
O10_3 C7_3 1_555 1_555
O11_3 N6_3 1_555 1_555
N1_3 Co2 1_555 1_555
N4_3 C9_3 1_555 1_555
N5_3 C15_3 1_555 1_555
N6_3 O12_3 1_555 1_555
C1_3 C4_3 1_555 1_555
C2_3 H1_3 1_555 1_555
C3_3 C17_3 1_555 1_555
C4_3 C2_3 1_555 1_555
C5_3 N2_3 1_555 1_555
C7_3 C10_3 1_555 1_555
C9_3 H5_3 1_555 1_555
H6_3 C9_3 1_555 1_555
C10_3 C9_3 1_555 1_555
H7_3 C10_3 1_555 1_555
H8_3 C10_3 1_555 1_555
C11_3 N2_3 1_555 1_555
H9_3 C11_3 1_555 1_555
C12_3 C4_3 1_555 1_555
H10_3 C12_3 1_555 1_555
C14_3 N1_3 1_555 1_555
H13_4 C14_3 1_555 1_555
C15_3 N3_3 1_555 1_555
C16_3 N4_3 1_555 1_555
C17_3 H14_3 1_555 1_555
H15_3 C17_3 1_555 1_555
C18_3 C1_3 1_555 1_555
H16_3 C18_3 1_555 1_555
C19_3 N5_3 1_555 1_555
H17_3 C19_3 1_555 1_555
H18_3 C19_3 1_555 1_555
C20_3 N3_3 1_555 1_555
C21_3 C1_3 1_555 1_555
H19_3 C21_3 1_555 1_555
C22_3 N1_3 1_555 1_555
H20_3 C22_3 1_555 1_555
Co7_2 O7_2 1_555 1_555
O15 Co2 1_555 1_555
O17_2 Co2 1_555 1_555
N4_3 C20_3 1_555 1_555
N5_3 C16_3 1_555 1_555
C2_3 C5_3 1_555 1_555
C11_3 C12_3 1_555 1_555
C14_3 C18_3 1_555 1_555
C17_3 C19_3 1_555 1_555
C21_3 C22_3 1_555 1_555
O15 C6_3 1_555 1_555
O16 C6_3 1_555 1_555
C6_3 C13_3 1_555 1_555
H4_3 C8_3 1_555 1_555
C13_3 C8_3 1_555 1_555
H11_3 C13_3 1_555 1_555
H12_3 C13_3 1_555 1_555
O13 C3_4 1_555 1_555
O5_4 C15_4 1_555 1_555
O17_2 C3_4 1_555 1_555
O9_4 C16_4 1_555 1_555
N5_4 C15_4 1_555 1_555
C3_4 C17_4 1_555 1_555
C17_4 H14_4 1_555 1_555
H15_4 C17_4 1_555 1_555
C19_4 N5_4 1_555 1_555
H17_4 C19_4 1_555 1_555
H18_4 C19_4 1_555 1_555
N5_4 C16_4 1_555 1_555
C17_4 C19_4 1_555 1_555
Co7_2 O10_4 1_555 1_555
O14_2 C7_4 1_555 1_555
O10_4 C7_4 1_555 1_555
N1_4 Co7_2 1_555 1_555
C1_4 C4_4 1_555 1_555
C12_4 C4_4 1_555 1_555
H10_4 C12_4 1_555 1_555
C14_4 N1_4 1_555 1_555
H13_5 C14_4 1_555 1_555
C21_4 C1_4 1_555 1_555
H19_4 C21_4 1_555 1_555
C22_4 N1_4 1_555 1_555
H20_4 C22_4 1_555 1_555
O15_2 Co7_2 1_555 1_555
C21_4 C22_4 1_555 1_555
O15_2 C6_4 1_555 1_555
O16_2 C6_4 1_555 1_555
O6_4 N6_4 1_555 1_555
O8_4 C20_4 1_555 1_555
O11_4 N6_4 1_555 1_555
N3_4 C8_4 1_555 1_555
N4_4 C9_4 1_555 1_555
N6_4 O12_4 1_555 1_555
C2_4 H1_4 1_555 1_555
C5_4 N2_4 1_555 1_555
C6_4 C13_4 1_555 1_555
C8_4 H3_4 1_555 1_555
H4_4 C8_4 1_555 1_555
C9_4 H5_4 1_555 1_555
H6_4 C9_4 1_555 1_555
C10_4 C9_4 1_555 1_555
H7_4 C10_4 1_555 1_555
H8_4 C10_4 1_555 1_555
C11_4 N2_4 1_555 1_555
H9_4 C11_4 1_555 1_555
C13_4 C8_4 1_555 1_555
H11_4 C13_4 1_555 1_555
H12_4 C13_4 1_555 1_555
H16_4 C18_4 1_555 1_555
C20_4 N3_4 1_555 1_555
N4_4 C20_4 1_555 1_555
C2_4 C5_4 1_555 1_555
O3_3 C6_5 1_555 1_555
O4_3 C6_5 1_555 1_555
C6_5 C13_5 1_555 1_555
H4_5 C8_5 1_555 1_555
C13_5 C8_5 1_555 1_555
H11_5 C13_5 1_555 1_555
H12_5 C13_5 1_555 1_555
Co4_2 O4_3 1_555 1_555
Co6_2 O3_3 1_555 1_555
O13_3 Co1_3 1_555 1_555
O14_3 Co1_3 1_555 1_555
O16_3 Co1_3 1_555 1_555
Co6_2 O10_5 1_555 1_555
O1_3 C3_5 1_555 1_555
O2_3 C7_5 1_555 1_555
O5_5 C15_5 1_555 1_555
O6_5 N6_5 1_555 1_555
O7_3 C3_5 1_555 1_555
O8_5 C20_5 1_555 1_555
O9_5 C16_5 1_555 1_555
O10_5 C7_5 1_555 1_555
O11_5 N6_5 1_555 1_555
N1_5 Co6_2 1_555 1_555
N4_5 C9_5 1_555 1_555
N5_5 C15_5 1_555 1_555
N6_5 O12_5 1_555 1_555
C1_5 C4_5 1_555 1_555
C2_5 H1_5 1_555 1_555
C3_5 C17_5 1_555 1_555
C4_5 C2_5 1_555 1_555
C5_5 N2_5 1_555 1_555
C7_5 C10_5 1_555 1_555
C9_5 H5_5 1_555 1_555
H6_5 C9_5 1_555 1_555
C10_5 C9_5 1_555 1_555
H7_5 C10_5 1_555 1_555
H8_5 C10_5 1_555 1_555
C11_5 N2_5 1_555 1_555
H9_5 C11_5 1_555 1_555
C12_5 C4_5 1_555 1_555
H10_5 C12_5 1_555 1_555
C14_5 N1_5 1_555 1_555
H13_7 C14_5 1_555 1_555
C15_5 N3_5 1_555 1_555
C16_5 N4_5 1_555 1_555
C17_5 H14_5 1_555 1_555
H15_5 C17_5 1_555 1_555
C18_5 C1_5 1_555 1_555
H16_5 C18_5 1_555 1_555
C19_5 N5_5 1_555 1_555
H17_5 C19_5 1_555 1_555
H18_5 C19_5 1_555 1_555
C20_5 N3_5 1_555 1_555
C21_5 C1_5 1_555 1_555
H19_5 C21_5 1_555 1_555
C22_5 N1_5 1_555 1_555
H20_5 C22_5 1_555 1_555
Co4_2 O2_3 1_555 1_555
Co5_2 O1_3 1_555 1_555
Co7_3 O7_3 1_555 1_555
O17_3 Co6_2 1_555 1_555
N4_5 C20_5 1_555 1_555
N5_5 C16_5 1_555 1_555
C2_5 C5_5 1_555 1_555
C11_5 C12_5 1_555 1_555
C14_5 C18_5 1_555 1_555
C17_5 C19_5 1_555 1_555
C21_5 C22_5 1_555 1_555
O13_4 Co1_4 1_555 1_555
O14_4 Co1_4 1_555 1_555
O16_4 Co1_4 1_555 1_555
O3_4 C6_6 1_555 1_555
O4_4 C6_6 1_555 1_555
O6_6 N6_6 1_555 1_555
O8_6 C20_6 1_555 1_555
O11_6 N6_6 1_555 1_555
N3_6 C8_6 1_555 1_555
N4_6 C9_6 1_555 1_555
N6_6 O12_6 1_555 1_555
C2_6 H1_6 1_555 1_555
C5_6 N2_6 1_555 1_555
C6_6 C13_6 1_555 1_555
C8_6 H3_6 1_555 1_555
H4_6 C8_6 1_555 1_555
C9_6 H5_6 1_555 1_555
H6_6 C9_6 1_555 1_555
C10_6 C9_6 1_555 1_555
H7_6 C10_6 1_555 1_555
H8_6 C10_6 1_555 1_555
C11_6 N2_6 1_555 1_555
H9_6 C11_6 1_555 1_555
C13_6 C8_6 1_555 1_555
H11_6 C13_6 1_555 1_555
H12_6 C13_6 1_555 1_555
H16_6 C18_6 1_555 1_555
C20_6 N3_6 1_555 1_555
Co5_2 O4_4 1_555 1_555
Co7_3 O3_4 1_555 1_555
N4_6 C20_6 1_555 1_555
C2_6 C5_6 1_555 1_555
Co7_3 O10_6 1_555 1_555
O2_4 C7_6 1_555 1_555
O10_6 C7_6 1_555 1_555
N1_6 Co7_3 1_555 1_555
C1_6 C4_6 1_555 1_555
C12_6 C4_6 1_555 1_555
H10_6 C12_6 1_555 1_555
C14_6 N1_6 1_555 1_555
H13_9 C14_6 1_555 1_555
C21_6 C1_6 1_555 1_555
H19_6 C21_6 1_555 1_555
C22_6 N1_6 1_555 1_555
H20_6 C22_6 1_555 1_555
Co5_2 O2_4 1_555 1_555
C21_6 C22_6 1_555 1_555
O1_4 C3_6 1_555 1_555
O5_6 C15_6 1_555 1_555
O17_3 C3_6 1_555 1_555
O9_6 C16_6 1_555 1_555
N5_6 C15_6 1_555 1_555
C3_6 C17_6 1_555 1_555
C17_6 H14_6 1_555 1_555
H15_6 C17_6 1_555 1_555
C19_6 N5_6 1_555 1_555
H17_6 C19_6 1_555 1_555
H18_6 C19_6 1_555 1_555
Co4_2 O1_4 1_555 1_555
N5_6 C16_6 1_555 1_555
C17_6 C19_6 1_555 1_555
Co4_2 O6_7 1_555 1_555
Co2_2 O10_7 1_555 1_555
O13_4 C3_7 1_555 1_555
O14_3 C7_7 1_555 1_555
O5_7 C15_7 1_555 1_555
O6_7 N6_7 1_555 1_555
O7_4 C3_7 1_555 1_555
O8_7 C20_7 1_555 1_555
O9_7 C16_7 1_555 1_555
O10_7 C7_7 1_555 1_555
O11_7 N6_7 1_555 1_555
O12_7 Co4_2 1_555 1_555
N1_7 Co2_2 1_555 1_555
N2_7 Co4_2 1_555 1_555
N4_7 C9_7 1_555 1_555
N5_7 C15_7 1_555 1_555
N6_7 O12_7 1_555 1_555
C1_7 C4_7 1_555 1_555
C2_7 H1_7 1_555 1_555
C3_7 C17_7 1_555 1_555
C4_7 C2_7 1_555 1_555
C5_7 N2_7 1_555 1_555
H2_7 C5_7 1_555 1_555
C7_7 C10_7 1_555 1_555
C9_7 H5_7 1_555 1_555
H6_7 C9_7 1_555 1_555
C10_7 C9_7 1_555 1_555
H7_7 C10_7 1_555 1_555
H8_7 C10_7 1_555 1_555
C11_7 N2_7 1_555 1_555
H9_7 C11_7 1_555 1_555
C12_7 C4_7 1_555 1_555
H10_7 C12_7 1_555 1_555
C14_7 N1_7 1_555 1_555
H13_10 C14_7 1_555 1_555
C15_7 N3_7 1_555 1_555
C16_7 N4_7 1_555 1_555
C17_7 H14_7 1_555 1_555
H15_7 C17_7 1_555 1_555
C18_7 C1_7 1_555 1_555
H16_7 C18_7 1_555 1_555
C19_7 N5_7 1_555 1_555
H17_7 C19_7 1_555 1_555
H18_7 C19_7 1_555 1_555
C20_7 N3_7 1_555 1_555
C21_7 C1_7 1_555 1_555
H19_7 C21_7 1_555 1_555
C22_7 N1_7 1_555 1_555
H20_7 C22_7 1_555 1_555
Co7_4 O7_4 1_555 1_555
O15_3 Co2_2 1_555 1_555
O17_4 Co2_2 1_555 1_555
N4_7 C20_7 1_555 1_555
N5_7 C16_7 1_555 1_555
C2_7 C5_7 1_555 1_555
C11_7 C12_7 1_555 1_555
C14_7 C18_7 1_555 1_555
C17_7 C19_7 1_555 1_555
C21_7 C22_7 1_555 1_555
O15_3 C6_7 1_555 1_555
O16_3 C6_7 1_555 1_555
C6_7 C13_7 1_555 1_555
H4_7 C8_7 1_555 1_555
C13_7 C8_7 1_555 1_555
H11_7 C13_7 1_555 1_555
H12_7 C13_7 1_555 1_555
Co7_4 O10_8 1_555 1_555
O14_4 C7_8 1_555 1_555
O10_8 C7_8 1_555 1_555
N1_8 Co7_4 1_555 1_555
C1_8 C4_8 1_555 1_555
C12_8 C4_8 1_555 1_555
H10_8 C12_8 1_555 1_555
C14_8 N1_8 1_555 1_555
H13_11 C14_8 1_555 1_555
C21_8 C1_8 1_555 1_555
H19_8 C21_8 1_555 1_555
C22_8 N1_8 1_555 1_555
H20_8 C22_8 1_555 1_555
O15_4 Co7_4 1_555 1_555
C21_8 C22_8 1_555 1_555
Co5_2 O6_8 1_555 1_555
O15_4 C6_8 1_555 1_555
O16_4 C6_8 1_555 1_555
O6_8 N6_8 1_555 1_555
O8_8 C20_8 1_555 1_555
O11_8 N6_8 1_555 1_555
O12_8 Co5_2 1_555 1_555
N2_8 Co5_2 1_555 1_555
N3_8 C8_8 1_555 1_555
N4_8 C9_8 1_555 1_555
N6_8 O12_8 1_555 1_555
C2_8 H1_8 1_555 1_555
C5_8 N2_8 1_555 1_555
H2_8 C5_8 1_555 1_555
C6_8 C13_8 1_555 1_555
C8_8 H3_8 1_555 1_555
H4_8 C8_8 1_555 1_555
C9_8 H5_8 1_555 1_555
H6_8 C9_8 1_555 1_555
C10_8 C9_8 1_555 1_555
H7_8 C10_8 1_555 1_555
H8_8 C10_8 1_555 1_555
C11_8 N2_8 1_555 1_555
H9_8 C11_8 1_555 1_555
C13_8 C8_8 1_555 1_555
H11_8 C13_8 1_555 1_555
H12_8 C13_8 1_555 1_555
H16_8 C18_8 1_555 1_555
C20_8 N3_8 1_555 1_555
N4_8 C20_8 1_555 1_555
C2_8 C5_8 1_555 1_555
O13_3 C3_8 1_555 1_555
O5_8 C15_8 1_555 1_555
O17_4 C3_8 1_555 1_555
O9_8 C16_8 1_555 1_555
N5_8 C15_8 1_555 1_555
C3_8 C17_8 1_555 1_555
C17_8 H14_8 1_555 1_555
H15_8 C17_8 1_555 1_555
C19_8 N5_8 1_555 1_555
H17_8 C19_8 1_555 1_555
H18_8 C19_8 1_555 1_555
N5_8 C16_8 1_555 1_555
C17_8 C19_8 1_555 1_555

#END
