
###############################################################################
#
# This file contains modified crystal structure data generated from the
# MOF subset of the Cambridge Structural Database (CSD) v542 
# hosted by the Cambridge Crystallographic Data Centre (CCDC).
#
# This work is licensed under the Creative Commons
# Attribution-NonCommercial-ShareAlike 4.0 International License.
# To view a copy of this license, visit
# http://creativecommons.org/licenses/by-nc-sa/4.0/
# or send a letter to
# Creative Commons, PO Box 1866, Mountain View, CA 94042, USA.
#
# CIF created using the CSD Python API on 22 February 2021
# The structure has been converted into the P1 space group
# The structure has a 3D framework
# The original CSD entry FALQIU is in the trigonal crystal system
# The framework has been calculated to contain at least 10.0% void space
# The void calculation uses a probe of radius 1.32A, grid spacing 0.4
# H atom positions have been added when not included in the experimental data
#
###############################################################################

data_FALQIU
_chemical_formula_moiety         '(C36 H66 Cu6 N6 O24 Pr2)n'
_symmetry_cell_setting           triclinic
_symmetry_space_group_name_H-M   'P 1'
_symmetry_Int_Tables_number      1
_space_group_name_Hall           'P 1'
loop_
_symmetry_equiv_pos_site_id
_symmetry_equiv_pos_as_xyz
1 x,y,z
_cell_length_a                   13.6614(19)
_cell_length_b                   13.6614(19)
_cell_length_c                   7.4147(15)
_cell_angle_alpha                90
_cell_angle_beta                 90
_cell_angle_gamma                120
_cell_volume                     1198.44
loop_
_atom_site_label
_atom_site_type_symbol
_atom_site_fract_x
_atom_site_fract_y
_atom_site_fract_z
Cu3 Cu 0.5000 -0.0000 0.0000
O17 O 0.54693(18) 0.18097(12) 0.1203(2)
H11 H 0.6748 0.0292 0.1402
Cu3_2 Cu 0.5000 -0.0000 1.0000
O25 O 0.59308(18) 0.07844(13) 0.7883(2)
N9 N 0.38708(18) 0.03667(12) 0.8938(2)
H44 H 0.7931 0.0061 0.9953
H60 H 0.421094 0.0876718 0.78485
H61 H 0.364798 0.0763019 0.9872
Cu1 Cu 0.0000 0.5000 0.0000
O3 O 0.07844(13) 0.48536(13) 0.2117(2)
O4 O 0.18052(16) 0.57937(17) 0.4492(2)
N1 N 0.03667(12) 0.64959(14) 0.1062(2)
H2 H 0.1431 0.7983 0.0476
C3 C 0.1070(2) 0.6708(2) 0.2691(3)
H3 H 0.1826 0.7303 0.2325
C4 C 0.12209(17) 0.57065(19) 0.3149(3)
C5 C 0.0731(5) 0.7242(5) 0.4116(7)
H4 H 0.0674 0.7858 0.3607
H5 H 0.1288 0.7521 0.5058
H6 H 0.0013 0.6693 0.4604
Pr3 Pr 0.3333 0.6667 0.659947(18)
Cu2 Cu 0.5000 0.5000 0.0000
Cu3_3 Cu 0.5000 1.0000 0.0000
O16 O 0.63404(13) 0.45307(18) 0.1203(2)
O18 O 0.51464(13) 0.59308(18) 0.2117(2)
O19 O 0.40692(18) 0.92156(13) 0.2117(2)
O26 O 0.42063(17) 0.60115(23) 0.4492(2)
O27 O 0.39885(23) 0.81948(16) 0.4492(2)
N2 N 0.35041(14) 0.38708(18) 0.1062(2)
N3 N 0.61292(18) 0.96333(12) 0.1062(2)
H10 H 0.3544 0.3252 0.1402
H18 H 0.2017 0.3448 0.0476
H19 H 0.6552 0.8569 0.0476
C17 C 0.3292(2) 0.4362(3) 0.2691(3)
C18 C 0.5638(3) 0.8930(2) 0.2691(3)
H23 H 0.2697 0.4523 0.2325
H24 H 0.5477 0.8174 0.2325
C22 C 0.42935(19) 0.55144(25) 0.3149(3)
C23 C 0.44856(25) 0.87791(17) 0.3149(3)
C27 C 0.2758(5) 0.3489(7) 0.4116(7)
C28 C 0.6511(7) 0.9269(5) 0.4116(7)
H28 H 0.2142 0.2816 0.3607
H29 H 0.7184 0.9326 0.3607
H33 H 0.2479 0.3767 0.5058
H34 H 0.6233 0.8712 0.5058
H38 H 0.3307 0.3320 0.4604
H39 H 0.6680 0.9987 0.4604
Cu1_2 Cu 0.0000 0.5000 1.0000
O1 O 0.24429(14) 0.80070(15) 0.7588(3)
O2 O 0.18097(12) 0.63404(13) 0.8797(2)
C1 C 0.17936(17) 0.72437(18) 0.8626(3)
C2 C 0.0902(2) 0.73845(19) 0.9667(4)
C6 C 0.0470(7) 0.7886(9) 0.9088(17)
H8 H 0.0082 0.7540 0.7986
H9 H 0.1038 0.8656 0.8857
Cu2_2 Cu 0.5000 0.5000 1.0000
Cu3_4 Cu 0.5000 1.0000 1.0000
O5 O 0.19930(15) 0.44359(21) 0.7588(3)
O6 O 0.55641(21) 0.75571(14) 0.7588(3)
O10 O 0.36596(13) 0.54693(18) 0.8797(2)
O11 O 0.45307(18) 0.81903(12) 0.8797(2)
O24 O 0.48536(13) 0.40692(18) 0.7883(2)
N8 N 0.64959(14) 0.61292(18) 0.8938(2)
H15 H 0.0292 0.3544 0.8598
H16 H 0.6456 0.6748 0.8598
H17 H 0.3252 0.9708 0.8598
C7 C 0.27563(18) 0.45499(25) 0.8626(3)
C8 C 0.54501(25) 0.82064(17) 0.8626(3)
C12 C 0.26155(19) 0.35175(28) 0.9667(4)
C13 C 0.64825(28) 0.9098(2) 0.9667(4)
C32 C 0.2114(9) 0.2584(11) 0.9088(17)
C33 C 0.7416(11) 0.9530(7) 0.9088(17)
H43 H 0.2130 0.2069 0.9953
H48 H 0.2460 0.2542 0.7986
H49 H 0.7458 0.9918 0.7986
H53 H 0.1344 0.2382 0.8857
H54 H 0.7618 0.8962 0.8857
H62 H 0.666578 0.578906 0.78485
H63 H 0.711504 0.635202 0.9872
Cu1_3 Cu 1.0000 0.5000 0.0000
H1 H 0.9708 0.6456 0.1402
O15 O 0.81903(12) 0.36596(13) 0.1203(2)
Cu1_4 Cu 1.0000 0.5000 1.0000
H7 H 0.9939 0.7870 0.9953
O23 O 0.92156(13) 0.51464(13) 0.7883(2)
N7 N 0.96333(12) 0.35041(14) 0.8938(2)
H58 H 0.912328 0.333422 0.78485
H59 H 0.923698 0.288496 0.9872
H45 H 0.0061 0.2130 0.0047
H58_2 H 0.0876718 0.666578 0.21515
H59_2 H 0.0763019 0.711504 0.0128
Pr2 Pr 0.6667 0.3333 0.340053(18)
O7 O 0.75571(14) 0.19930(15) 0.2412(3)
O8 O 0.80070(15) 0.55641(21) 0.2412(3)
O9 O 0.44359(21) 0.24429(14) 0.2412(3)
O31 O 0.81948(16) 0.42063(17) 0.5508(2)
O32 O 0.57937(17) 0.39885(23) 0.5508(2)
O33 O 0.60115(23) 0.18052(16) 0.5508(2)
C9 C 0.82064(17) 0.27563(18) 0.1374(3)
C10 C 0.72437(18) 0.54501(25) 0.1374(3)
C11 C 0.45499(25) 0.17936(17) 0.1374(3)
C14 C 0.9098(2) 0.26155(19) 0.0333(4)
C15 C 0.73845(19) 0.64825(28) 0.0333(4)
C16 C 0.35175(28) 0.0902(2) 0.0333(4)
C34 C 0.9530(7) 0.2114(9) 0.0912(17)
C35 C 0.7886(9) 0.7416(11) 0.0912(17)
C36 C 0.2584(11) 0.0470(7) 0.0912(17)
H46 H 0.7870 0.7931 0.0047
H50 H 0.9918 0.2460 0.2014
H51 H 0.7540 0.7458 0.2014
H52 H 0.2542 0.0082 0.2014
H55 H 0.8962 0.1344 0.1143
H56 H 0.8656 0.7618 0.1143
H57 H 0.2382 0.1038 0.1143
H20 H 0.8569 0.2017 0.9524
H21 H 0.7983 0.6552 0.9524
H22 H 0.3448 0.1431 0.9524
C19 C 0.8930(2) 0.3292(2) 0.7309(3)
C20 C 0.6708(2) 0.5638(3) 0.7309(3)
C21 C 0.4362(3) 0.1070(2) 0.7309(3)
H25 H 0.8174 0.2697 0.7675
H26 H 0.7303 0.5477 0.7675
H27 H 0.4523 0.1826 0.7675
C24 C 0.87791(17) 0.42935(19) 0.6851(3)
C25 C 0.57065(19) 0.44856(25) 0.6851(3)
C26 C 0.55144(25) 0.12209(17) 0.6851(3)
C29 C 0.9269(5) 0.2758(5) 0.5884(7)
C30 C 0.7242(5) 0.6511(7) 0.5884(7)
C31 C 0.3489(7) 0.0731(5) 0.5884(7)
H30 H 0.9326 0.2142 0.6393
H31 H 0.7858 0.7184 0.6393
H32 H 0.2816 0.0674 0.6393
H35 H 0.8712 0.2479 0.4942
H36 H 0.7521 0.6233 0.4942
H37 H 0.3767 0.1288 0.4942
H40 H 0.9987 0.3307 0.5396
H41 H 0.6693 0.6680 0.5396
H42 H 0.3320 0.0013 0.5396
H62_2 H 0.333422 0.421094 0.21515
H63_2 H 0.288496 0.364798 0.0128
H47 H 0.2069 0.9939 0.0047
H60_2 H 0.578906 0.912328 0.21515
H61_2 H 0.635202 0.923698 0.0128
loop_
_geom_bond_atom_site_label_1
_geom_bond_atom_site_label_2
_geom_bond_site_symmetry_1
_geom_bond_site_symmetry_2
O17 Cu3 1_555 1_555
O25 Cu3_2 1_555 1_555
N9 Cu3_2 1_555 1_555
N9 H60 1_555 1_555
N9 H61 1_555 1_555
O3 Cu1 1_555 1_555
O4 C4 1_555 1_555
N1 Cu1 1_555 1_555
C3 N1 1_555 1_555
H3 C3 1_555 1_555
C4 O3 1_555 1_555
C5 C3 1_555 1_555
H4 C5 1_555 1_555
H5 C5 1_555 1_555
H6 C5 1_555 1_555
Pr3 O4 1_555 1_555
O16 Cu2 1_555 1_555
O18 Cu2 1_555 1_555
O19 Cu3_3 1_555 1_555
O26 Pr3 1_555 1_555
O27 Pr3 1_555 1_555
N2 Cu2 1_555 1_555
N3 Cu3_3 1_555 1_555
H10 N2 1_555 1_555
C17 N2 1_555 1_555
C18 N3 1_555 1_555
H23 C17 1_555 1_555
H24 C18 1_555 1_555
C22 O18 1_555 1_555
C23 O19 1_555 1_555
C27 C17 1_555 1_555
C28 C18 1_555 1_555
H28 C27 1_555 1_555
H29 C28 1_555 1_555
H33 C27 1_555 1_555
H34 C28 1_555 1_555
H38 C27 1_555 1_555
H39 C28 1_555 1_555
C3 C4 1_555 1_555
O26 C22 1_555 1_555
O27 C23 1_555 1_555
C17 C22 1_555 1_555
C18 C23 1_555 1_555
Pr3 O1 1_555 1_555
Cu1_2 O2 1_555 1_555
O1 C1 1_555 1_555
O2 Pr3 1_555 1_555
C1 O2 1_555 1_555
C6 C2 1_555 1_555
H8 C6 1_555 1_555
H9 C6 1_555 1_555
Cu2_2 O10 1_555 1_555
Cu3_4 O11 1_555 1_555
O5 Pr3 1_555 1_555
O6 Pr3 1_555 1_555
O10 Pr3 1_555 1_555
O11 Pr3 1_555 1_555
O24 Cu2_2 1_555 1_555
N8 Cu2_2 1_555 1_555
H16 N8 1_555 1_555
C7 O5 1_555 1_555
C8 O6 1_555 1_555
C32 C12 1_555 1_555
C33 C13 1_555 1_555
H43 C32 1_555 1_555
H48 C32 1_555 1_555
H49 C33 1_555 1_555
H53 C32 1_555 1_555
H54 C33 1_555 1_555
C1 C2 1_555 1_555
O10 C7 1_555 1_555
O11 C8 1_555 1_555
C7 C12 1_555 1_555
C8 C13 1_555 1_555
N8 H62 1_555 1_555
N8 H63 1_555 1_555
O15 Cu1_3 1_555 1_555
O23 Cu1_4 1_555 1_555
N7 Cu1_4 1_555 1_555
N7 H58 1_555 1_555
N7 H59 1_555 1_555
N1 H58_2 1_555 1_555
N1 H59_2 1_555 1_555
Pr2 O7 1_555 1_555
O7 C9 1_555 1_555
O8 Pr2 1_555 1_555
O9 Pr2 1_555 1_555
O15 Pr2 1_555 1_555
O16 Pr2 1_555 1_555
O17 Pr2 1_555 1_555
O31 Pr2 1_555 1_555
O32 Pr2 1_555 1_555
O33 Pr2 1_555 1_555
C9 O15 1_555 1_555
C10 O8 1_555 1_555
C11 O9 1_555 1_555
C34 C14 1_555 1_555
C35 C15 1_555 1_555
C36 C16 1_555 1_555
H46 C35 1_555 1_555
H50 C34 1_555 1_555
H51 C35 1_555 1_555
H52 C36 1_555 1_555
H55 C34 1_555 1_555
H56 C35 1_555 1_555
H57 C36 1_555 1_555
O16 C10 1_555 1_555
O17 C11 1_555 1_555
C9 C14 1_555 1_555
C10 C15 1_555 1_555
C11 C16 1_555 1_555
C19 N7 1_555 1_555
C20 N8 1_555 1_555
C21 N9 1_555 1_555
H25 C19 1_555 1_555
H26 C20 1_555 1_555
H27 C21 1_555 1_555
C24 O23 1_555 1_555
C25 O24 1_555 1_555
C26 O25 1_555 1_555
C29 C19 1_555 1_555
C30 C20 1_555 1_555
C31 C21 1_555 1_555
H30 C29 1_555 1_555
H31 C30 1_555 1_555
H32 C31 1_555 1_555
H35 C29 1_555 1_555
H36 C30 1_555 1_555
H37 C31 1_555 1_555
H40 C29 1_555 1_555
H41 C30 1_555 1_555
H42 C31 1_555 1_555
O31 C24 1_555 1_555
O32 C25 1_555 1_555
O33 C26 1_555 1_555
C19 C24 1_555 1_555
C20 C25 1_555 1_555
C21 C26 1_555 1_555
N2 H62_2 1_555 1_555
N2 H63_2 1_555 1_555
N3 H60_2 1_555 1_555
N3 H61_2 1_555 1_555

#END
