
###############################################################################
#
# This file contains modified crystal structure data generated from the
# MOF subset of the Cambridge Structural Database (CSD) v542 
# hosted by the Cambridge Crystallographic Data Centre (CCDC).
#
# This work is licensed under the Creative Commons
# Attribution-NonCommercial-ShareAlike 4.0 International License.
# To view a copy of this license, visit
# http://creativecommons.org/licenses/by-nc-sa/4.0/
# or send a letter to
# Creative Commons, PO Box 1866, Mountain View, CA 94042, USA.
#
# CIF created using the CSD Python API on 22 February 2021
# The structure has been converted into the P1 space group
# The structure has a 3D framework
# The original CSD entry FISQIK is in the rhombohedral crystal system
# The framework has been calculated to contain at least 10.0% void space
# The void calculation uses a probe of radius 1.32A, grid spacing 0.4
#
###############################################################################

data_FISQIK
_chemical_formula_moiety         '(C270 H198 Co30 O138)n'
_symmetry_cell_setting           triclinic
_symmetry_space_group_name_H-M   'P 1'
_symmetry_Int_Tables_number      1
_space_group_name_Hall           'P 1'
loop_
_symmetry_equiv_pos_site_id
_symmetry_equiv_pos_as_xyz
1 x,y,z
_cell_length_a                   32.0211(15)
_cell_length_b                   32.0211(15)
_cell_length_c                   14.7494(10)
_cell_angle_alpha                90
_cell_angle_beta                 90
_cell_angle_gamma                120
_cell_volume                     13097.2
loop_
_atom_site_label
_atom_site_type_symbol
_atom_site_fract_x
_atom_site_fract_y
_atom_site_fract_z
Co2 Co 0.5000 0.5000 0.0000
Co3 Co 0.54380(4) 0.41794(4) 0.03291(7)
C16 C 0.4225(3) 0.3835(4) 0.2016(5)
C17 C 0.3913(4) 0.3974(4) 0.2318(7)
H12 H 0.3943 0.4264 0.2120
C18 C 0.3531(3) 0.3673(4) 0.2950(6)
H13 H 0.3340 0.3783 0.3214
C19 C 0.3457(3) 0.3212(3) 0.3153(5)
C20 C 0.3793(5) 0.3089(4) 0.2852(9)
H14 H 0.3771 0.2801 0.3041
C21 C 0.4167(4) 0.3398(5) 0.2263(8)
H15 H 0.4377 0.3302 0.2038
C22 C 0.3031(3) 0.2866(4) 0.3649(6)
C23 C 0.2577(3) 0.2807(3) 0.3440(5)
H16 H 0.2559 0.3025 0.3049
C24 C 0.2146(4) 0.2426(4) 0.3806(5)
C25 C 0.2205(3) 0.2145(4) 0.4492(6)
H17 H 0.1932 0.1909 0.4788
C26 C 0.2650(3) 0.2210(4) 0.4734(6)
C27 C 0.3068(3) 0.2576(4) 0.4333(6)
H18 H 0.3369 0.2630 0.4514
C28 C 0.4621(4) 0.4149(4) 0.1363(6)
C29 C 0.1683(4) 0.2331(3) 0.3573(6)
C30 C 0.2681(4) 0.1902(4) 0.5467(6)
O9 O 0.4656(2) 0.4515(2) 0.1068(3)
O10 O 0.5419(5) 0.3536(4) 0.0210(7)
O11 O 0.4878(4) 0.3966(3) 0.1132(8)
O12 O 0.5873(5) 0.4333(5) 0.1535(6)
O13 O 0.3092(2) 0.1977(2) 0.5698(4)
O14 O 0.2295(3) 0.1600(4) 0.5794(6)
O15 O 0.1615(2) 0.2624(2) 0.3123(3)
O16 O 0.1325(3) 0.1918(3) 0.3730(5)
Co4 Co 0.08461(4) 0.20747(6) 0.30042(7)
Co7 Co 0.20747(6) 0.12287(4) 0.69958(7)
Co8 Co 0.1667 0.3333 0.3333
Co11 Co 0.3333 0.1667 0.6667
O17 O 0.5310(2) 0.5552(3) 0.0969(4)
O19 O 0.4933(4) 0.5972(5) 0.0873(6)
O21 O 0.5658(3) 0.4948(2) 0.0210(3)
O24 O 0.3926(4) 0.5342(3) 0.0397(5)
Co1 Co 0.45620(4) 0.58206(4) 0.96709(7)
Co2_2 Co 0.5000 0.5000 1.0000
C1 C 0.5775(3) 0.6165(4) 0.7984(5)
C2 C 0.6087(4) 0.6026(4) 0.7682(7)
H1 H 0.6057 0.5736 0.7880
C3 C 0.6469(3) 0.6327(4) 0.7050(6)
H2 H 0.6660 0.6217 0.6786
C4 C 0.6543(3) 0.6788(3) 0.6847(5)
C5 C 0.6207(5) 0.6911(4) 0.7148(9)
H3 H 0.6229 0.7199 0.6959
C6 C 0.5833(4) 0.6602(5) 0.7737(8)
H4 H 0.5623 0.6698 0.7962
C7 C 0.6969(3) 0.7134(4) 0.6351(6)
C8 C 0.7423(3) 0.7193(3) 0.6560(5)
H5 H 0.7441 0.6975 0.6951
C9 C 0.7854(4) 0.7574(4) 0.6194(5)
C10 C 0.7795(3) 0.7855(4) 0.5508(6)
H6 H 0.8068 0.8091 0.5212
C11 C 0.7350(3) 0.7790(4) 0.5266(6)
C12 C 0.6932(3) 0.7424(4) 0.5667(6)
H7 H 0.6631 0.7370 0.5486
C13 C 0.5379(4) 0.5851(4) 0.8637(6)
C14 C 0.8317(4) 0.7669(3) 0.6427(6)
C15 C 0.7319(4) 0.8098(4) 0.4533(6)
O1 O 0.5344(2) 0.5485(2) 0.8932(3)
O2 O 0.4581(5) 0.6464(4) 0.9790(7)
O3 O 0.5122(4) 0.6034(3) 0.8868(8)
O4 O 0.4127(5) 0.5667(5) 0.8465(6)
O5 O 0.6908(2) 0.8023(2) 0.4302(4)
O6 O 0.7705(3) 0.8400(4) 0.4206(6)
O7 O 0.8385(2) 0.7376(2) 0.6877(3)
O8 O 0.8675(3) 0.8082(3) 0.6270(5)
Co5 Co 0.79253(6) 0.87713(4) 0.30042(7)
Co6 Co 0.91539(4) 0.79253(6) 0.69958(7)
Co9 Co 0.6667 0.8333 0.3333
Co10 Co 0.8333 0.6667 0.6667
O18 O 0.4690(2) 0.4448(3) 0.9031(4)
O20 O 0.5067(4) 0.4028(5) 0.9127(6)
O22 O 0.4342(3) 0.5052(2) 0.9790(3)
O23 O 0.6074(4) 0.4658(3) 0.9603(5)
Co2_3 Co 0.5000 0.0000 0.0000
Co3_2 Co 0.58206(4) 0.12586(6) 0.03291(7)
C16_2 C 0.6165(4) 0.0390(5) 0.2016(5)
C19_2 C 0.6788(3) 0.0245(4) 0.3153(5)
C20_2 C 0.6911(4) 0.0704(6) 0.2852(9)
H14_2 H 0.7199 0.0970 0.3041
C21_2 C 0.6602(5) 0.0769(6) 0.2263(8)
H15_2 H 0.6698 0.1075 0.2038
C22_2 C 0.7134(4) 0.0165(5) 0.3649(6)
C25_2 C 0.7855(4) 0.0060(5) 0.4492(6)
H17_2 H 0.8091 0.0023 0.4788
C26_2 C 0.7790(4) 0.0440(5) 0.4734(6)
C27_2 C 0.7424(4) 0.0492(5) 0.4333(6)
H18_2 H 0.7370 0.0739 0.4514
C28_2 C 0.5851(4) 0.0472(6) 0.1363(6)
C30_2 C 0.8098(4) 0.0779(6) 0.5467(6)
O9_2 O 0.5485(2) 0.0141(3) 0.1068(3)
O10_2 O 0.6464(4) 0.1883(6) 0.0210(7)
O11_2 O 0.6034(3) 0.0912(5) 0.1132(8)
O12_2 O 0.5667(5) 0.1540(7) 0.1535(6)
O13_2 O 0.8023(2) 0.1115(3) 0.5698(4)
O14_2 O 0.8400(4) 0.0695(5) 0.5794(6)
Co7_2 Co 0.87713(4) 0.08461(7) 0.69958(7)
Co11_2 Co 0.8333 0.1667 0.6667
O21_2 O 0.5052(2) 0.0709(4) 0.0210(3)
Co2_4 Co 0.5000 0.0000 1.0000
C2_2 C 0.3974(4) 0.0061(6) 0.7682(7)
H1_2 H 0.4264 0.0321 0.7880
C3_2 C 0.3673(4) 0.0142(5) 0.7050(6)
H2_2 H 0.3783 0.0443 0.6786
C8_2 C 0.2807(3) 0.0230(4) 0.6560(5)
H5_2 H 0.3025 0.0466 0.6951
C9_2 C 0.2426(4) 0.0280(6) 0.6194(5)
C14_2 C 0.2331(3) 0.0648(5) 0.6427(6)
O7_2 O 0.2624(2) 0.1009(3) 0.6877(3)
O8_2 O 0.1918(3) 0.0593(4) 0.6270(5)
O18_2 O 0.5552(3) 0.0241(4) 0.9031(4)
O20_2 O 0.5972(5) 0.1038(6) 0.9127(6)
O23_2 O 0.5342(3) 0.1415(5) 0.9603(5)
Co2_5 Co 0.5000 1.0000 0.0000
C17_2 C 0.6026(4) 0.9939(6) 0.2318(7)
H12_2 H 0.5736 0.9679 0.2120
C18_2 C 0.6327(4) 0.9858(5) 0.2950(6)
H13_2 H 0.6217 0.9557 0.3214
C23_2 C 0.7193(3) 0.9770(4) 0.3440(5)
H16_2 H 0.6975 0.9534 0.3049
C24_2 C 0.7574(4) 0.9720(6) 0.3806(5)
C29_2 C 0.7669(3) 0.9352(5) 0.3573(6)
O15_2 O 0.7376(2) 0.8991(3) 0.3123(3)
O16_2 O 0.8082(3) 0.9407(4) 0.3730(5)
O17_2 O 0.4448(3) 0.9759(4) 0.0969(4)
O19_2 O 0.4028(5) 0.8962(6) 0.0873(6)
O24_2 O 0.4658(3) 0.8585(5) 0.0397(5)
Co1_2 Co 0.41794(4) 0.87414(6) 0.96709(7)
Co2_6 Co 0.5000 1.0000 1.0000
C1_2 C 0.3835(4) 0.9610(5) 0.7984(5)
C4_2 C 0.3212(3) 0.9755(4) 0.6847(5)
C5_2 C 0.3089(4) 0.9296(6) 0.7148(9)
H3_2 H 0.2801 0.9030 0.6959
C6_2 C 0.3398(5) 0.9231(6) 0.7737(8)
H4_2 H 0.3302 0.8925 0.7962
C7_2 C 0.2866(4) 0.9835(5) 0.6351(6)
C10_2 C 0.2145(4) 0.9940(5) 0.5508(6)
H6_2 H 0.1909 0.9977 0.5212
C11_2 C 0.2210(4) 0.9560(5) 0.5266(6)
C12_2 C 0.2576(4) 0.9508(5) 0.5667(6)
H7_2 H 0.2630 0.9261 0.5486
C13_2 C 0.4149(4) 0.9528(6) 0.8637(6)
C15_2 C 0.1902(4) 0.9221(6) 0.4533(6)
O1_2 O 0.4515(2) 0.9859(3) 0.8932(3)
O2_2 O 0.3536(4) 0.8117(6) 0.9790(7)
O3_2 O 0.3966(3) 0.9088(5) 0.8868(8)
O4_2 O 0.4333(5) 0.8460(7) 0.8465(6)
O5_2 O 0.1977(2) 0.8885(3) 0.4302(4)
O6_2 O 0.1600(4) 0.9305(5) 0.4206(6)
Co5_2 Co 0.12287(4) 0.91539(7) 0.30042(7)
Co9_2 Co 0.1667 0.8333 0.3333
O22_2 O 0.4948(2) 0.9291(4) 0.9790(3)
Co2_7 Co -0.0000 0.5000 0.0000
C17_3 C 0.0061(6) 0.6087(4) 0.2318(7)
H12_3 H 0.0321 0.6057 0.2120
C18_3 C 0.0142(5) 0.6469(3) 0.2950(6)
H13_3 H 0.0443 0.6660 0.3214
C23_3 C 0.0230(4) 0.7423(3) 0.3440(5)
H16_3 H 0.0466 0.7441 0.3049
C24_3 C 0.0280(6) 0.7854(4) 0.3806(5)
C29_3 C 0.0648(5) 0.8317(4) 0.3573(6)
O15_3 O 0.1009(3) 0.8385(2) 0.3123(3)
O16_3 O 0.0593(4) 0.8675(3) 0.3730(5)
O17_3 O 0.0241(4) 0.4690(2) 0.0969(4)
O19_3 O 0.1038(6) 0.5067(4) 0.0873(6)
O24_3 O 0.1415(5) 0.6074(4) 0.0397(5)
Co1_3 Co 0.12586(6) 0.54380(4) 0.96709(7)
Co2_8 Co -0.0000 0.5000 1.0000
C1_3 C 0.0390(5) 0.4225(3) 0.7984(5)
C4_3 C 0.0245(4) 0.3457(3) 0.6847(5)
C5_3 C 0.0704(6) 0.3793(5) 0.7148(9)
H3_3 H 0.0970 0.3771 0.6959
C6_3 C 0.0769(6) 0.4167(4) 0.7737(8)
H4_3 H 0.1075 0.4377 0.7962
C7_3 C 0.0165(5) 0.3031(3) 0.6351(6)
C10_3 C 0.0060(5) 0.2205(3) 0.5508(6)
H6_3 H 0.0023 0.1932 0.5212
C11_3 C 0.0440(5) 0.2650(3) 0.5266(6)
C12_3 C 0.0492(5) 0.3068(3) 0.5667(6)
H7_3 H 0.0739 0.3369 0.5486
C13_3 C 0.0472(6) 0.4621(4) 0.8637(6)
C15_3 C 0.0779(6) 0.2681(4) 0.4533(6)
O1_3 O 0.0141(3) 0.4656(2) 0.8932(3)
O2_3 O 0.1883(6) 0.5419(5) 0.9790(7)
O3_3 O 0.0912(5) 0.4878(4) 0.8868(8)
O4_3 O 0.1540(7) 0.5873(5) 0.8465(6)
O5_3 O 0.1115(3) 0.3092(2) 0.4302(4)
O6_3 O 0.0695(5) 0.2295(3) 0.4206(6)
O22_3 O 0.0709(4) 0.5658(3) 0.9790(3)
Co2_9 Co 1.0000 0.5000 0.0000
Co3_3 Co 0.87414(6) 0.45620(4) 0.03291(7)
C16_3 C 0.9610(5) 0.5775(3) 0.2016(5)
C19_3 C 0.9755(4) 0.6543(3) 0.3153(5)
C20_3 C 0.9296(6) 0.6207(5) 0.2852(9)
H14_3 H 0.9030 0.6229 0.3041
C21_3 C 0.9231(6) 0.5833(4) 0.2263(8)
H15_3 H 0.8925 0.5623 0.2038
C22_3 C 0.9835(5) 0.6969(3) 0.3649(6)
C25_3 C 0.9940(5) 0.7795(3) 0.4492(6)
H17_3 H 0.9977 0.8068 0.4788
C26_3 C 0.9560(5) 0.7350(3) 0.4734(6)
C27_3 C 0.9508(5) 0.6932(3) 0.4333(6)
H18_3 H 0.9261 0.6631 0.4514
C28_3 C 0.9528(6) 0.5379(4) 0.1363(6)
C30_3 C 0.9221(6) 0.7319(4) 0.5467(6)
O9_3 O 0.9859(3) 0.5344(2) 0.1068(3)
O10_3 O 0.8117(6) 0.4581(5) 0.0210(7)
O11_3 O 0.9088(5) 0.5122(4) 0.1132(8)
O12_3 O 0.8460(7) 0.4127(5) 0.1535(6)
O13_3 O 0.8885(3) 0.6908(2) 0.5698(4)
O14_3 O 0.9305(5) 0.7705(3) 0.5794(6)
O21_3 O 0.9291(4) 0.4342(3) 0.0210(3)
Co2_10 Co 1.0000 0.5000 1.0000
C2_3 C 0.9939(6) 0.3913(4) 0.7682(7)
H1_3 H 0.9679 0.3943 0.7880
C3_3 C 0.9858(5) 0.3531(3) 0.7050(6)
H2_3 H 0.9557 0.3340 0.6786
C8_3 C 0.9770(4) 0.2577(3) 0.6560(5)
H5_3 H 0.9534 0.2559 0.6951
C9_3 C 0.9720(6) 0.2146(4) 0.6194(5)
C14_3 C 0.9352(5) 0.1683(4) 0.6427(6)
O7_3 O 0.8991(3) 0.1615(2) 0.6877(3)
O8_3 O 0.9407(4) 0.1325(3) 0.6270(5)
O18_3 O 0.9759(4) 0.5310(2) 0.9031(4)
O20_3 O 0.8962(6) 0.4933(4) 0.9127(6)
O23_3 O 0.8585(5) 0.3926(4) 0.9603(5)
C4_4 C 0.3210(3) 0.0121(3) 0.0180(5)
C5_4 C 0.2874(5) 0.0244(4) 0.0481(9)
H3_4 H 0.2896 0.0532 0.0292
H4_4 H 0.2290 0.0031 0.1295
H5_4 H 0.4108 0.0308 0.0284
C7_4 C 0.3636(3) 0.0467(4) 0.9684(6)
C8_4 C 0.4090(3) 0.0526(3) 0.9893(5)
C9_4 C 0.4521(4) 0.0907(4) 0.9527(5)
C10_4 C 0.4462(3) 0.1188(4) 0.8841(6)
H6_4 H 0.4735 0.1424 0.8545
C11_4 C 0.4017(3) 0.1123(4) 0.8599(6)
C12_4 C 0.3599(3) 0.0757(4) 0.9000(6)
H7_4 H 0.3298 0.0703 0.8819
C14_4 C 0.4984(4) 0.1002(3) 0.9760(6)
C15_4 C 0.3986(4) 0.1431(4) 0.7866(6)
O5_4 O 0.3575(2) 0.1356(2) 0.7635(4)
O6_4 O 0.4372(3) 0.1733(4) 0.7539(6)
Co5_3 Co 0.45919(6) 0.21047(4) 0.63376(7)
C1_4 C 0.2442(3) 0.9498(4) 0.1317(5)
C2_4 C 0.2754(4) 0.9359(4) 0.1015(7)
H1_4 H 0.2724 0.9069 0.1213
C3_4 C 0.3136(3) 0.9660(4) 0.0383(6)
H2_4 H 0.3327 0.9550 0.0119
C6_4 C 0.2500(4) 0.9935(5) 0.1070(8)
C13_4 C 0.2046(4) 0.9184(4) 0.1970(6)
O1_4 O 0.2011(2) 0.8818(2) 0.2265(3)
O2_4 O 0.1248(5) 0.9797(4) 0.3123(7)
O3_4 O 0.1789(4) 0.9367(3) 0.2201(8)
O4_4 O 0.0794(5) 0.9000(5) 0.1798(6)
Co3_4 Co 0.21047(4) 0.75127(4) 0.36624(7)
C16_4 C 0.0892(3) 0.7168(4) 0.5349(5)
C17_4 C 0.0580(4) 0.7307(4) 0.5651(7)
H12_4 H 0.0610 0.7597 0.5453
C18_4 C 0.0198(3) 0.7006(4) 0.6283(6)
H13_4 H 0.0007 0.7116 0.6547
C19_4 C 0.0124(3) 0.6545(3) 0.6486(5)
C20_4 C 0.0460(5) 0.6422(4) 0.6185(9)
H14_4 H 0.0438 0.6134 0.6374
C21_4 C 0.0834(4) 0.6731(5) 0.5596(8)
H15_4 H 0.1044 0.6635 0.5371
H18_4 H 0.0036 0.5963 0.7847
C28_4 C 0.1288(4) 0.7482(4) 0.4696(6)
O9_4 O 0.1323(2) 0.7848(2) 0.4401(3)
O10_4 O 0.2086(5) 0.6869(4) 0.3543(7)
O11_4 O 0.1545(4) 0.7299(3) 0.4465(8)
O12_4 O 0.2540(5) 0.7666(5) 0.4868(6)
O18_4 O 0.1356(2) 0.7782(3) 0.2365(4)
O20_4 O 0.1733(4) 0.7362(5) 0.2461(6)
O21_4 O 0.2324(3) 0.8282(2) 0.3544(3)
O23_4 O 0.2740(4) 0.7992(3) 0.2937(5)
C22_4 C 0.9698(3) 0.6199(4) 0.6982(6)
C23_4 C 0.9244(3) 0.6140(3) 0.6773(5)
H16_4 H 0.9226 0.6358 0.6382
C24_4 C 0.8813(4) 0.5759(4) 0.7139(5)
C25_4 C 0.8872(3) 0.5478(4) 0.7825(6)
H17_4 H 0.8599 0.5242 0.8121
C26_4 C 0.9317(3) 0.5543(4) 0.8067(6)
C27_4 C 0.9735(3) 0.5909(4) 0.7666(6)
C29_4 C 0.8350(4) 0.5664(3) 0.6906(6)
C30_4 C 0.9348(4) 0.5235(4) 0.8800(6)
O15_4 O 0.8282(2) 0.5957(2) 0.6456(3)
O16_4 O 0.7992(3) 0.5251(3) 0.7063(5)
Co4_2 Co 0.75127(4) 0.54081(6) 0.63376(7)
C1_5 C 0.0502(4) 0.2943(5) 0.1317(5)
C2_5 C 0.0641(4) 0.3394(6) 0.1015(7)
H1_5 H 0.0931 0.3654 0.1213
C3_5 C 0.0340(4) 0.3475(5) 0.0383(6)
H2_5 H 0.0450 0.3776 0.0119
C6_5 C 0.0065(5) 0.2564(6) 0.1070(8)
C13_5 C 0.0816(4) 0.2861(6) 0.1970(6)
O1_5 O 0.1182(2) 0.3192(3) 0.2265(3)
O2_5 O 0.0203(4) 0.1450(6) 0.3123(7)
O3_5 O 0.0633(3) 0.2421(5) 0.2201(8)
O4_5 O 0.1000(5) 0.1793(7) 0.1798(6)
Co3_5 Co 0.24873(4) 0.45919(6) 0.36624(7)
C16_5 C 0.2832(4) 0.3723(5) 0.5349(5)
C17_5 C 0.2693(4) 0.3272(6) 0.5651(7)
H12_5 H 0.2403 0.3012 0.5453
C18_5 C 0.2994(4) 0.3191(5) 0.6283(6)
H13_5 H 0.2884 0.2890 0.6547
C19_5 C 0.3455(3) 0.3578(4) 0.6486(5)
C20_5 C 0.3578(4) 0.4037(6) 0.6185(9)
H14_5 H 0.3866 0.4303 0.6374
C21_5 C 0.3269(5) 0.4102(6) 0.5596(8)
H15_5 H 0.3365 0.4408 0.5371
C22_5 C 0.3801(4) 0.3498(5) 0.6982(6)
C23_5 C 0.3860(3) 0.3103(4) 0.6773(5)
H16_5 H 0.3642 0.2867 0.6382
C24_5 C 0.4241(4) 0.3053(6) 0.7139(5)
C25_5 C 0.4522(4) 0.3393(5) 0.7825(6)
H17_5 H 0.4758 0.3356 0.8121
C26_5 C 0.4457(4) 0.3773(5) 0.8067(6)
C27_5 C 0.4091(4) 0.3825(5) 0.7666(6)
H18_5 H 0.4037 0.4072 0.7847
C28_5 C 0.2518(4) 0.3805(6) 0.4696(6)
C29_5 C 0.4336(3) 0.2685(5) 0.6906(6)
C30_5 C 0.4765(4) 0.4112(6) 0.8800(6)
O9_5 O 0.2152(2) 0.3474(3) 0.4401(3)
O10_5 O 0.3131(4) 0.5216(6) 0.3543(7)
O11_5 O 0.2701(3) 0.4245(5) 0.4465(8)
O12_5 O 0.2334(5) 0.4873(7) 0.4868(6)
O15_5 O 0.4043(2) 0.2324(3) 0.6456(3)
O16_5 O 0.4749(3) 0.2740(4) 0.7063(5)
O18_5 O 0.2218(3) 0.3575(4) 0.2365(4)
O20_5 O 0.2638(5) 0.4372(6) 0.2461(6)
O21_5 O 0.1718(2) 0.4043(4) 0.3544(3)
O23_5 O 0.2008(3) 0.4749(5) 0.2937(5)
C4_5 C 0.9879(3) 0.3088(4) 0.0180(5)
C5_5 C 0.9756(4) 0.2629(6) 0.0481(9)
H3_5 H 0.9468 0.2363 0.0292
H4_5 H 0.9969 0.2258 0.1295
H5_5 H 0.9692 0.3799 0.0284
C7_5 C 0.9533(4) 0.3168(5) 0.9684(6)
C8_5 C 0.9474(3) 0.3563(4) 0.9893(5)
C9_5 C 0.9093(4) 0.3613(6) 0.9527(5)
C10_5 C 0.8812(4) 0.3273(5) 0.8841(6)
H6_5 H 0.8576 0.3310 0.8545
C11_5 C 0.8877(4) 0.2893(5) 0.8599(6)
C12_5 C 0.9243(4) 0.2841(5) 0.9000(6)
H7_5 H 0.9297 0.2594 0.8819
C14_5 C 0.8998(3) 0.3981(5) 0.9760(6)
C15_5 C 0.8569(4) 0.2554(6) 0.7866(6)
O5_5 O 0.8644(2) 0.2218(3) 0.7635(4)
O6_5 O 0.8267(4) 0.2638(5) 0.7539(6)
Co5_4 Co 0.78953(4) 0.24873(7) 0.63376(7)
C22_6 C 0.6502(5) 0.0302(3) 0.6982(6)
C23_6 C 0.6897(4) 0.0756(3) 0.6773(5)
H16_6 H 0.7133 0.0774 0.6382
C24_6 C 0.6947(6) 0.1187(4) 0.7139(5)
C25_6 C 0.6607(5) 0.1128(3) 0.7825(6)
H17_6 H 0.6644 0.1401 0.8121
C26_6 C 0.6227(5) 0.0683(3) 0.8067(6)
C27_6 C 0.6175(5) 0.0265(3) 0.7666(6)
C29_6 C 0.7315(5) 0.1650(4) 0.6906(6)
C30_6 C 0.5888(6) 0.0652(4) 0.8800(6)
O15_6 O 0.7676(3) 0.1718(2) 0.6456(3)
O16_6 O 0.7260(4) 0.2008(3) 0.7063(5)
C1_6 C 0.7057(5) 0.7558(3) 0.1317(5)
C2_6 C 0.6606(6) 0.7246(4) 0.1015(7)
H1_6 H 0.6346 0.7276 0.1213
C3_6 C 0.6525(5) 0.6864(3) 0.0383(6)
H2_6 H 0.6224 0.6673 0.0119
C4_6 C 0.6912(4) 0.6790(3) 0.0180(5)
C5_6 C 0.7371(6) 0.7126(5) 0.0481(9)
H3_6 H 0.7637 0.7104 0.0292
C6_6 C 0.7436(6) 0.7500(4) 0.1070(8)
H4_6 H 0.7742 0.7710 0.1295
H5_6 H 0.6201 0.5892 0.0284
C13_6 C 0.7139(6) 0.7954(4) 0.1970(6)
O1_6 O 0.6808(3) 0.7989(2) 0.2265(3)
O2_6 O 0.8550(6) 0.8752(5) 0.3123(7)
O3_6 O 0.7579(5) 0.8211(4) 0.2201(8)
O4_6 O 0.8207(7) 0.9206(5) 0.1798(6)
Co3_6 Co 0.54081(6) 0.78953(4) 0.36624(7)
C16_6 C 0.6277(5) 0.9108(3) 0.5349(5)
C17_6 C 0.6728(6) 0.9420(4) 0.5651(7)
H12_6 H 0.6988 0.9390 0.5453
C18_6 C 0.6809(5) 0.9802(3) 0.6283(6)
H13_6 H 0.7110 0.9993 0.6547
C19_6 C 0.6422(4) 0.9876(3) 0.6486(5)
C20_6 C 0.5963(6) 0.9540(5) 0.6185(9)
H14_6 H 0.5697 0.9562 0.6374
C21_6 C 0.5898(6) 0.9166(4) 0.5596(8)
H15_6 H 0.5592 0.8956 0.5371
H18_6 H 0.5928 0.9964 0.7847
C28_6 C 0.6195(6) 0.8712(4) 0.4696(6)
O9_6 O 0.6526(3) 0.8677(2) 0.4401(3)
O10_6 O 0.4784(6) 0.7914(5) 0.3543(7)
O11_6 O 0.5755(5) 0.8455(4) 0.4465(8)
O12_6 O 0.5127(7) 0.7460(5) 0.4868(6)
O18_6 O 0.6425(4) 0.8644(2) 0.2365(4)
O20_6 O 0.5628(6) 0.8267(4) 0.2461(6)
O21_6 O 0.5957(4) 0.7676(3) 0.3544(3)
O23_6 O 0.5251(5) 0.7260(4) 0.2937(5)
C7_6 C 0.6832(5) 0.6364(3) 0.9684(6)
C8_6 C 0.6437(4) 0.5910(3) 0.9893(5)
C9_6 C 0.6387(6) 0.5479(4) 0.9527(5)
C10_6 C 0.6727(5) 0.5538(3) 0.8841(6)
H6_6 H 0.6690 0.5265 0.8545
C11_6 C 0.7107(5) 0.5983(3) 0.8599(6)
C12_6 C 0.7159(5) 0.6401(3) 0.9000(6)
H7_6 H 0.7406 0.6702 0.8819
C14_6 C 0.6019(5) 0.5016(4) 0.9760(6)
C15_6 C 0.7446(6) 0.6014(4) 0.7866(6)
O5_6 O 0.7782(3) 0.6425(2) 0.7635(4)
O6_6 O 0.7362(5) 0.5628(3) 0.7539(6)
C7_7 C 0.0302(3) 0.3801(4) 0.3018(6)
C8_7 C 0.0756(3) 0.3860(3) 0.3227(5)
H5_7 H 0.0774 0.3642 0.3618
C9_7 C 0.1187(4) 0.4241(4) 0.2861(5)
C10_7 C 0.1128(3) 0.4522(4) 0.2175(6)
H6_7 H 0.1401 0.4758 0.1879
C11_7 C 0.0683(3) 0.4457(4) 0.1933(6)
C12_7 C 0.0265(3) 0.4091(4) 0.2334(6)
C14_7 C 0.1650(4) 0.4336(3) 0.3094(6)
C15_7 C 0.0652(4) 0.4765(4) 0.1200(6)
C1_7 C 0.9108(3) 0.2832(4) 0.4651(5)
C2_7 C 0.9420(4) 0.2693(4) 0.4349(7)
H1_7 H 0.9390 0.2403 0.4547
C3_7 C 0.9802(3) 0.2994(4) 0.3717(6)
H2_7 H 0.9993 0.2884 0.3453
C4_7 C 0.9876(3) 0.3455(3) 0.3514(5)
C5_7 C 0.9540(5) 0.3578(4) 0.3815(9)
H3_7 H 0.9562 0.3866 0.3626
C6_7 C 0.9166(4) 0.3269(5) 0.4404(8)
H4_7 H 0.8956 0.3365 0.4629
H7_7 H 0.9964 0.4037 0.2153
C13_7 C 0.8712(4) 0.2518(4) 0.5304(6)
O1_7 O 0.8677(2) 0.2152(2) 0.5599(3)
O2_7 O 0.7914(5) 0.3131(4) 0.6457(7)
O3_7 O 0.8455(4) 0.2701(3) 0.5535(8)
O4_7 O 0.7460(5) 0.2334(5) 0.5132(6)
C16_7 C 0.7558(3) 0.0502(4) 0.8683(5)
C17_7 C 0.7246(4) 0.0641(4) 0.8985(7)
H12_7 H 0.7276 0.0931 0.8787
C18_7 C 0.6864(3) 0.0340(4) 0.9617(6)
H13_7 H 0.6673 0.0450 0.9881
C21_7 C 0.7500(4) 0.0065(5) 0.8930(8)
C28_7 C 0.7954(4) 0.0816(4) 0.8030(6)
O9_7 O 0.7989(2) 0.1182(2) 0.7735(3)
O10_7 O 0.8752(5) 0.0203(4) 0.6877(7)
O11_7 O 0.8211(4) 0.0633(3) 0.7799(8)
O12_7 O 0.9206(5) 0.1000(5) 0.8202(6)
C22_7 C 0.6364(3) 0.9533(4) 0.0316(6)
C23_7 C 0.5910(3) 0.9474(3) 0.0107(5)
C24_7 C 0.5479(4) 0.9093(4) 0.0473(5)
C25_7 C 0.5538(3) 0.8812(4) 0.1159(6)
H17_7 H 0.5265 0.8576 0.1455
C26_7 C 0.5983(3) 0.8877(4) 0.1401(6)
C27_7 C 0.6401(3) 0.9243(4) 0.1000(6)
H18_7 H 0.6702 0.9297 0.1181
C29_7 C 0.5016(4) 0.8998(3) 0.0240(6)
C30_7 C 0.6014(4) 0.8569(4) 0.2134(6)
C19_7 C 0.6790(3) 0.9879(3) 0.9820(5)
C20_7 C 0.7126(5) 0.9756(4) 0.9519(9)
H14_7 H 0.7104 0.9468 0.9708
H15_7 H 0.7710 0.9969 0.8705
H16_7 H 0.5892 0.9692 0.9716
C22_8 C 0.0467(4) 0.6832(5) 0.0316(6)
C23_8 C 0.0526(3) 0.6437(4) 0.0107(5)
C24_8 C 0.0907(4) 0.6387(6) 0.0473(5)
C25_8 C 0.1188(4) 0.6727(5) 0.1159(6)
H17_8 H 0.1424 0.6690 0.1455
C26_8 C 0.1123(4) 0.7107(5) 0.1401(6)
C27_8 C 0.0757(4) 0.7159(5) 0.1000(6)
H18_8 H 0.0703 0.7406 0.1181
C29_8 C 0.1002(3) 0.6019(5) 0.0240(6)
C30_8 C 0.1431(4) 0.7446(6) 0.2134(6)
C19_8 C 0.0121(3) 0.6912(4) 0.9820(5)
C20_8 C 0.0244(4) 0.7371(6) 0.9519(9)
H14_8 H 0.0532 0.7637 0.9708
H15_8 H 0.0031 0.7742 0.8705
H16_8 H 0.0308 0.6201 0.9716
C1_8 C 0.7168(4) 0.6277(5) 0.4651(5)
C2_8 C 0.7307(4) 0.6728(6) 0.4349(7)
H1_8 H 0.7597 0.6988 0.4547
C3_8 C 0.7006(4) 0.6809(5) 0.3717(6)
H2_8 H 0.7116 0.7110 0.3453
C4_8 C 0.6545(3) 0.6422(4) 0.3514(5)
C5_8 C 0.6422(4) 0.5963(6) 0.3815(9)
H3_8 H 0.6134 0.5697 0.3626
C6_8 C 0.6731(5) 0.5898(6) 0.4404(8)
H4_8 H 0.6635 0.5592 0.4629
C7_8 C 0.6199(4) 0.6502(5) 0.3018(6)
C8_8 C 0.6140(3) 0.6897(4) 0.3227(5)
H5_8 H 0.6358 0.7133 0.3618
C9_8 C 0.5759(4) 0.6947(6) 0.2861(5)
C10_8 C 0.5478(4) 0.6607(5) 0.2175(6)
H6_8 H 0.5242 0.6644 0.1879
C11_8 C 0.5543(4) 0.6227(5) 0.1933(6)
C12_8 C 0.5909(4) 0.6175(5) 0.2334(6)
H7_8 H 0.5963 0.5928 0.2153
C13_8 C 0.7482(4) 0.6195(6) 0.5304(6)
C14_8 C 0.5664(3) 0.7315(5) 0.3094(6)
C15_8 C 0.5235(4) 0.5888(6) 0.1200(6)
O1_8 O 0.7848(2) 0.6526(3) 0.5599(3)
O2_8 O 0.6869(4) 0.4784(6) 0.6457(7)
O3_8 O 0.7299(3) 0.5755(5) 0.5535(8)
O4_8 O 0.7666(5) 0.5127(7) 0.5132(6)
C16_8 C 0.9498(4) 0.7057(5) 0.8683(5)
C17_8 C 0.9359(4) 0.6606(6) 0.8985(7)
H12_8 H 0.9069 0.6346 0.8787
C18_8 C 0.9660(4) 0.6525(5) 0.9617(6)
H13_8 H 0.9550 0.6224 0.9881
C21_8 C 0.9935(5) 0.7436(6) 0.8930(8)
C28_8 C 0.9184(4) 0.7139(6) 0.8030(6)
O9_8 O 0.8818(2) 0.6808(3) 0.7735(3)
O10_8 O 0.9797(4) 0.8550(6) 0.6877(7)
O11_8 O 0.9367(3) 0.7579(5) 0.7799(8)
O12_8 O 0.9000(5) 0.8207(7) 0.8202(6)
C22_9 C 0.3168(5) 0.3636(3) 0.0316(6)
C23_9 C 0.3563(4) 0.4090(3) 0.0107(5)
C24_9 C 0.3613(6) 0.4521(4) 0.0473(5)
C25_9 C 0.3273(5) 0.4462(3) 0.1159(6)
H17_9 H 0.3310 0.4735 0.1455
C26_9 C 0.2893(5) 0.4017(3) 0.1401(6)
C27_9 C 0.2841(5) 0.3599(3) 0.1000(6)
H18_9 H 0.2594 0.3298 0.1181
C29_9 C 0.3981(5) 0.4984(4) 0.0240(6)
C30_9 C 0.2554(6) 0.3986(4) 0.2134(6)
C1_9 C 0.3723(5) 0.0892(3) 0.4651(5)
C2_9 C 0.3272(6) 0.0580(4) 0.4349(7)
H1_9 H 0.3012 0.0610 0.4547
C3_9 C 0.3191(5) 0.0198(3) 0.3717(6)
H2_9 H 0.2890 0.0007 0.3453
C4_9 C 0.3578(4) 0.0124(3) 0.3514(5)
C5_9 C 0.4037(6) 0.0460(5) 0.3815(9)
H3_9 H 0.4303 0.0438 0.3626
C6_9 C 0.4102(6) 0.0834(4) 0.4404(8)
H4_9 H 0.4408 0.1044 0.4629
H7_9 H 0.4072 0.0036 0.2153
C13_9 C 0.3805(6) 0.1288(4) 0.5304(6)
O1_9 O 0.3474(3) 0.1323(2) 0.5599(3)
O2_9 O 0.5216(6) 0.2086(5) 0.6457(7)
O3_9 O 0.4245(5) 0.1545(4) 0.5535(8)
O4_9 O 0.4873(7) 0.2540(5) 0.5132(6)
C16_9 C 0.2943(5) 0.2442(3) 0.8683(5)
C17_9 C 0.3394(6) 0.2754(4) 0.8985(7)
H12_9 H 0.3654 0.2724 0.8787
C18_9 C 0.3475(5) 0.3136(3) 0.9617(6)
H13_9 H 0.3776 0.3327 0.9881
C19_9 C 0.3088(4) 0.3210(3) 0.9820(5)
C20_9 C 0.2629(6) 0.2874(5) 0.9519(9)
H14_9 H 0.2363 0.2896 0.9708
C21_9 C 0.2564(6) 0.2500(4) 0.8930(8)
H15_9 H 0.2258 0.2290 0.8705
H16_9 H 0.3799 0.4108 0.9716
C28_9 C 0.2861(6) 0.2046(4) 0.8030(6)
O9_9 O 0.3192(3) 0.2011(2) 0.7735(3)
O10_9 O 0.1450(6) 0.1248(5) 0.6877(7)
O11_9 O 0.2421(5) 0.1789(4) 0.7799(8)
O12_9 O 0.1793(7) 0.0794(5) 0.8202(6)
C7_9 C 0.3498(5) 0.9698(3) 0.3018(6)
C8_9 C 0.3103(4) 0.9244(3) 0.3227(5)
H5_9 H 0.2867 0.9226 0.3618
C9_9 C 0.3053(6) 0.8813(4) 0.2861(5)
C10_9 C 0.3393(5) 0.8872(3) 0.2175(6)
H6_9 H 0.3356 0.8599 0.1879
C11_9 C 0.3773(5) 0.9317(3) 0.1933(6)
C12_9 C 0.3825(5) 0.9735(3) 0.2334(6)
C14_9 C 0.2685(5) 0.8350(4) 0.3094(6)
C15_9 C 0.4112(6) 0.9348(4) 0.1200(6)
loop_
_geom_bond_atom_site_label_1
_geom_bond_atom_site_label_2
_geom_bond_site_symmetry_1
_geom_bond_site_symmetry_2
Co3 O10 1_555 1_555
C16 C17 1_555 1_555
C17 H12 1_555 1_555
C18 C17 1_555 1_555
H13 C18 1_555 1_555
C19 C18 1_555 1_555
C20 C19 1_555 1_555
H14 C20 1_555 1_555
C21 C16 1_555 1_555
H15 C21 1_555 1_555
C22 C19 1_555 1_555
C23 C22 1_555 1_555
H16 C23 1_555 1_555
C24 C23 1_555 1_555
C25 C24 1_555 1_555
H17 C25 1_555 1_555
C26 C25 1_555 1_555
C27 C22 1_555 1_555
H18 C27 1_555 1_555
C28 C16 1_555 1_555
C29 C24 1_555 1_555
C30 C26 1_555 1_555
O9 Co2 1_555 1_555
O11 Co3 1_555 1_555
O12 Co3 1_555 1_555
O13 C30 1_555 1_555
O14 C30 1_555 1_555
O15 C29 1_555 1_555
O16 C29 1_555 1_555
Co4 O15 1_555 1_555
Co7 O14 1_555 1_555
Co8 O15 1_555 1_555
Co11 O13 1_555 1_555
O17 Co2 1_555 1_555
O21 Co2 1_555 1_555
Co3 O21 1_555 1_555
C20 C21 1_555 1_555
C26 C27 1_555 1_555
C28 O9 1_555 1_555
C28 O11 1_555 1_555
O16 Co4 1_555 1_555
Co1 O2 1_555 1_555
Co2_2 O1 1_555 1_555
C1 C2 1_555 1_555
C2 H1 1_555 1_555
C3 C2 1_555 1_555
H2 C3 1_555 1_555
C4 C3 1_555 1_555
C5 C4 1_555 1_555
H3 C5 1_555 1_555
C6 C1 1_555 1_555
H4 C6 1_555 1_555
C7 C4 1_555 1_555
C8 C7 1_555 1_555
H5 C8 1_555 1_555
C9 C8 1_555 1_555
C10 C9 1_555 1_555
H6 C10 1_555 1_555
C11 C10 1_555 1_555
C12 C7 1_555 1_555
H7 C12 1_555 1_555
C13 C1 1_555 1_555
C14 C9 1_555 1_555
C15 C11 1_555 1_555
O1 C13 1_555 1_555
O3 Co1 1_555 1_555
O4 Co1 1_555 1_555
O5 C15 1_555 1_555
O6 C15 1_555 1_555
O7 C14 1_555 1_555
O8 C14 1_555 1_555
Co5 O6 1_555 1_555
Co6 O7 1_555 1_555
Co9 O5 1_555 1_555
Co10 O7 1_555 1_555
O18 Co2_2 1_555 1_555
O22 Co1 1_555 1_555
Co2_2 O22 1_555 1_555
C5 C6 1_555 1_555
C11 C12 1_555 1_555
C13 O3 1_555 1_555
O8 Co6 1_555 1_555
Co3_2 O10_2 1_555 1_555
C20_2 C19_2 1_555 1_555
H14_2 C20_2 1_555 1_555
C21_2 C16_2 1_555 1_555
H15_2 C21_2 1_555 1_555
C22_2 C19_2 1_555 1_555
H17_2 C25_2 1_555 1_555
C26_2 C25_2 1_555 1_555
C27_2 C22_2 1_555 1_555
H18_2 C27_2 1_555 1_555
C28_2 C16_2 1_555 1_555
C30_2 C26_2 1_555 1_555
O9_2 Co2_3 1_555 1_555
O11_2 Co3_2 1_555 1_555
O12_2 Co3_2 1_555 1_555
O13_2 C30_2 1_555 1_555
O14_2 C30_2 1_555 1_555
Co7_2 O14_2 1_555 1_555
Co11_2 O13_2 1_555 1_555
O21_2 Co2_3 1_555 1_555
Co3_2 O21_2 1_555 1_555
C20_2 C21_2 1_555 1_555
C26_2 C27_2 1_555 1_555
C28_2 O9_2 1_555 1_555
C28_2 O11_2 1_555 1_555
C2_2 H1_2 1_555 1_555
C3_2 C2_2 1_555 1_555
H2_2 C3_2 1_555 1_555
H5_2 C8_2 1_555 1_555
C9_2 C8_2 1_555 1_555
C14_2 C9_2 1_555 1_555
O7_2 C14_2 1_555 1_555
O8_2 C14_2 1_555 1_555
Co7 O7_2 1_555 1_555
Co11 O7_2 1_555 1_555
O18_2 Co2_4 1_555 1_555
O8_2 Co7 1_555 1_555
C17_2 H12_2 1_555 1_555
C18_2 C17_2 1_555 1_555
H13_2 C18_2 1_555 1_555
H16_2 C23_2 1_555 1_555
C24_2 C23_2 1_555 1_555
C29_2 C24_2 1_555 1_555
O15_2 C29_2 1_555 1_555
O16_2 C29_2 1_555 1_555
Co5 O15_2 1_555 1_555
Co9 O15_2 1_555 1_555
O17_2 Co2_5 1_555 1_555
O16_2 Co5 1_555 1_555
Co1_2 O2_2 1_555 1_555
Co2_6 O1_2 1_555 1_555
C5_2 C4_2 1_555 1_555
H3_2 C5_2 1_555 1_555
C6_2 C1_2 1_555 1_555
H4_2 C6_2 1_555 1_555
C7_2 C4_2 1_555 1_555
H6_2 C10_2 1_555 1_555
C11_2 C10_2 1_555 1_555
C12_2 C7_2 1_555 1_555
H7_2 C12_2 1_555 1_555
C13_2 C1_2 1_555 1_555
C15_2 C11_2 1_555 1_555
O1_2 C13_2 1_555 1_555
O3_2 Co1_2 1_555 1_555
O4_2 Co1_2 1_555 1_555
O5_2 C15_2 1_555 1_555
O6_2 C15_2 1_555 1_555
Co5_2 O6_2 1_555 1_555
Co9_2 O5_2 1_555 1_555
O22_2 Co1_2 1_555 1_555
Co2_6 O22_2 1_555 1_555
C5_2 C6_2 1_555 1_555
C11_2 C12_2 1_555 1_555
C13_2 O3_2 1_555 1_555
C17_3 H12_3 1_555 1_555
C18_3 C17_3 1_555 1_555
H13_3 C18_3 1_555 1_555
H16_3 C23_3 1_555 1_555
C24_3 C23_3 1_555 1_555
C29_3 C24_3 1_555 1_555
O15_3 C29_3 1_555 1_555
O16_3 C29_3 1_555 1_555
Co5_2 O15_3 1_555 1_555
Co9_2 O15_3 1_555 1_555
O17_3 Co2_7 1_555 1_555
O16_3 Co5_2 1_555 1_555
Co1_3 O2_3 1_555 1_555
Co2_8 O1_3 1_555 1_555
C5_3 C4_3 1_555 1_555
H3_3 C5_3 1_555 1_555
C6_3 C1_3 1_555 1_555
H4_3 C6_3 1_555 1_555
C7_3 C4_3 1_555 1_555
H6_3 C10_3 1_555 1_555
C11_3 C10_3 1_555 1_555
C12_3 C7_3 1_555 1_555
H7_3 C12_3 1_555 1_555
C13_3 C1_3 1_555 1_555
C15_3 C11_3 1_555 1_555
O1_3 C13_3 1_555 1_555
O3_3 Co1_3 1_555 1_555
O4_3 Co1_3 1_555 1_555
O5_3 C15_3 1_555 1_555
O6_3 C15_3 1_555 1_555
Co4 O6_3 1_555 1_555
Co8 O5_3 1_555 1_555
O22_3 Co1_3 1_555 1_555
Co2_8 O22_3 1_555 1_555
C5_3 C6_3 1_555 1_555
C11_3 C12_3 1_555 1_555
C13_3 O3_3 1_555 1_555
Co3_3 O10_3 1_555 1_555
C20_3 C19_3 1_555 1_555
H14_3 C20_3 1_555 1_555
C21_3 C16_3 1_555 1_555
H15_3 C21_3 1_555 1_555
C22_3 C19_3 1_555 1_555
H17_3 C25_3 1_555 1_555
C26_3 C25_3 1_555 1_555
C27_3 C22_3 1_555 1_555
H18_3 C27_3 1_555 1_555
C28_3 C16_3 1_555 1_555
C30_3 C26_3 1_555 1_555
O9_3 Co2_9 1_555 1_555
O11_3 Co3_3 1_555 1_555
O12_3 Co3_3 1_555 1_555
O13_3 C30_3 1_555 1_555
O14_3 C30_3 1_555 1_555
Co6 O14_3 1_555 1_555
Co10 O13_3 1_555 1_555
O21_3 Co2_9 1_555 1_555
Co3_3 O21_3 1_555 1_555
C20_3 C21_3 1_555 1_555
C26_3 C27_3 1_555 1_555
C28_3 O9_3 1_555 1_555
C28_3 O11_3 1_555 1_555
C2_3 H1_3 1_555 1_555
C3_3 C2_3 1_555 1_555
H2_3 C3_3 1_555 1_555
H5_3 C8_3 1_555 1_555
C9_3 C8_3 1_555 1_555
C14_3 C9_3 1_555 1_555
O7_3 C14_3 1_555 1_555
O8_3 C14_3 1_555 1_555
Co7_2 O7_3 1_555 1_555
Co11_2 O7_3 1_555 1_555
O18_3 Co2_10 1_555 1_555
O8_3 Co7_2 1_555 1_555
C5_4 C4_4 1_555 1_555
H3_4 C5_4 1_555 1_555
C8_4 C7_4 1_555 1_555
C9_4 C8_4 1_555 1_555
C10_4 C9_4 1_555 1_555
H6_4 C10_4 1_555 1_555
C11_4 C10_4 1_555 1_555
C12_4 C7_4 1_555 1_555
H7_4 C12_4 1_555 1_555
C14_4 C9_4 1_555 1_555
C15_4 C11_4 1_555 1_555
O5_4 C15_4 1_555 1_555
O6_4 C15_4 1_555 1_555
O23_2 C14_4 1_555 1_555
Co5_3 O6_4 1_555 1_555
Co11 O5_4 1_555 1_555
C11_4 C12_4 1_555 1_555
Co5_2 O2_4 1_555 1_555
Co9_2 O1_4 1_555 1_555
C1_4 C2_4 1_555 1_555
C2_4 H1_4 1_555 1_555
C3_4 C2_4 1_555 1_555
H2_4 C3_4 1_555 1_555
C6_4 C1_4 1_555 1_555
C13_4 C1_4 1_555 1_555
O1_4 C13_4 1_555 1_555
O3_4 Co5_2 1_555 1_555
O4_4 Co5_2 1_555 1_555
Co3_4 O10_4 1_555 1_555
C16_4 C17_4 1_555 1_555
C17_4 H12_4 1_555 1_555
C18_4 C17_4 1_555 1_555
H13_4 C18_4 1_555 1_555
C19_4 C18_4 1_555 1_555
C20_4 C19_4 1_555 1_555
H14_4 C20_4 1_555 1_555
C21_4 C16_4 1_555 1_555
H15_4 C21_4 1_555 1_555
C28_4 C16_4 1_555 1_555
O9_4 Co9_2 1_555 1_555
O11_4 Co3_4 1_555 1_555
O12_4 Co3_4 1_555 1_555
O18_4 Co9_2 1_555 1_555
O20_4 Co3_4 1_555 1_555
O21_4 Co9_2 1_555 1_555
O23_4 Co3_4 1_555 1_555
C13_4 O3_4 1_555 1_555
Co3_4 O21_4 1_555 1_555
C20_4 C21_4 1_555 1_555
C28_4 O9_4 1_555 1_555
C28_4 O11_4 1_555 1_555
C23_4 C22_4 1_555 1_555
H16_4 C23_4 1_555 1_555
C24_4 C23_4 1_555 1_555
C25_4 C24_4 1_555 1_555
H17_4 C25_4 1_555 1_555
C26_4 C25_4 1_555 1_555
C27_4 C22_4 1_555 1_555
C29_4 C24_4 1_555 1_555
C30_4 C26_4 1_555 1_555
O18_3 C30_4 1_555 1_555
O20_3 C30_4 1_555 1_555
O15_4 C29_4 1_555 1_555
O16_4 C29_4 1_555 1_555
Co4_2 O15_4 1_555 1_555
Co10 O15_4 1_555 1_555
C26_4 C27_4 1_555 1_555
O16_4 Co4_2 1_555 1_555
Co4 O2_5 1_555 1_555
Co8 O1_5 1_555 1_555
C1_5 C2_5 1_555 1_555
C2_5 H1_5 1_555 1_555
C3_5 C2_5 1_555 1_555
H2_5 C3_5 1_555 1_555
C6_5 C1_5 1_555 1_555
C13_5 C1_5 1_555 1_555
O1_5 C13_5 1_555 1_555
O3_5 Co4 1_555 1_555
O4_5 Co4 1_555 1_555
Co3_5 O10_5 1_555 1_555
C16_5 C17_5 1_555 1_555
C17_5 H12_5 1_555 1_555
C18_5 C17_5 1_555 1_555
H13_5 C18_5 1_555 1_555
C19_5 C18_5 1_555 1_555
C20_5 C19_5 1_555 1_555
H14_5 C20_5 1_555 1_555
C21_5 C16_5 1_555 1_555
H15_5 C21_5 1_555 1_555
C22_5 C19_5 1_555 1_555
C23_5 C22_5 1_555 1_555
H16_5 C23_5 1_555 1_555
C24_5 C23_5 1_555 1_555
C25_5 C24_5 1_555 1_555
H17_5 C25_5 1_555 1_555
C26_5 C25_5 1_555 1_555
C27_5 C22_5 1_555 1_555
H18_5 C27_5 1_555 1_555
C28_5 C16_5 1_555 1_555
C29_5 C24_5 1_555 1_555
C30_5 C26_5 1_555 1_555
O9_5 Co8 1_555 1_555
O11_5 Co3_5 1_555 1_555
O12_5 Co3_5 1_555 1_555
O18 C30_5 1_555 1_555
O20 C30_5 1_555 1_555
O15_5 C29_5 1_555 1_555
O16_5 C29_5 1_555 1_555
Co5_3 O15_5 1_555 1_555
Co11 O15_5 1_555 1_555
O18_5 Co8 1_555 1_555
O20_5 Co3_5 1_555 1_555
O21_5 Co8 1_555 1_555
O23_5 Co3_5 1_555 1_555
C13_5 O3_5 1_555 1_555
Co3_5 O21_5 1_555 1_555
C20_5 C21_5 1_555 1_555
C26_5 C27_5 1_555 1_555
C28_5 O9_5 1_555 1_555
C28_5 O11_5 1_555 1_555
O16_5 Co5_3 1_555 1_555
C5_5 C4_5 1_555 1_555
H3_5 C5_5 1_555 1_555
C8_5 C7_5 1_555 1_555
C9_5 C8_5 1_555 1_555
C10_5 C9_5 1_555 1_555
H6_5 C10_5 1_555 1_555
C11_5 C10_5 1_555 1_555
C12_5 C7_5 1_555 1_555
H7_5 C12_5 1_555 1_555
C14_5 C9_5 1_555 1_555
C15_5 C11_5 1_555 1_555
O5_5 C15_5 1_555 1_555
O6_5 C15_5 1_555 1_555
O23_3 C14_5 1_555 1_555
Co5_4 O6_5 1_555 1_555
Co11_2 O5_5 1_555 1_555
C11_5 C12_5 1_555 1_555
C23_6 C22_6 1_555 1_555
H16_6 C23_6 1_555 1_555
C24_6 C23_6 1_555 1_555
C25_6 C24_6 1_555 1_555
H17_6 C25_6 1_555 1_555
C26_6 C25_6 1_555 1_555
C27_6 C22_6 1_555 1_555
C29_6 C24_6 1_555 1_555
C30_6 C26_6 1_555 1_555
O18_2 C30_6 1_555 1_555
O20_2 C30_6 1_555 1_555
O15_6 C29_6 1_555 1_555
O16_6 C29_6 1_555 1_555
Co5_4 O15_6 1_555 1_555
Co11_2 O15_6 1_555 1_555
C26_6 C27_6 1_555 1_555
O16_6 Co5_4 1_555 1_555
Co5 O2_6 1_555 1_555
Co9 O1_6 1_555 1_555
C1_6 C2_6 1_555 1_555
C2_6 H1_6 1_555 1_555
C3_6 C2_6 1_555 1_555
H2_6 C3_6 1_555 1_555
C4_6 C3_6 1_555 1_555
C5_6 C4_6 1_555 1_555
H3_6 C5_6 1_555 1_555
C6_6 C1_6 1_555 1_555
H4_6 C6_6 1_555 1_555
C13_6 C1_6 1_555 1_555
O1_6 C13_6 1_555 1_555
O3_6 Co5 1_555 1_555
O4_6 Co5 1_555 1_555
Co3_6 O10_6 1_555 1_555
C16_6 C17_6 1_555 1_555
C17_6 H12_6 1_555 1_555
C18_6 C17_6 1_555 1_555
H13_6 C18_6 1_555 1_555
C19_6 C18_6 1_555 1_555
C20_6 C19_6 1_555 1_555
H14_6 C20_6 1_555 1_555
C21_6 C16_6 1_555 1_555
H15_6 C21_6 1_555 1_555
C28_6 C16_6 1_555 1_555
O9_6 Co9 1_555 1_555
O11_6 Co3_6 1_555 1_555
O12_6 Co3_6 1_555 1_555
O18_6 Co9 1_555 1_555
O20_6 Co3_6 1_555 1_555
O21_6 Co9 1_555 1_555
O23_6 Co3_6 1_555 1_555
C5_6 C6_6 1_555 1_555
C13_6 O3_6 1_555 1_555
Co3_6 O21_6 1_555 1_555
C20_6 C21_6 1_555 1_555
C28_6 O9_6 1_555 1_555
C28_6 O11_6 1_555 1_555
C8_6 C7_6 1_555 1_555
C9_6 C8_6 1_555 1_555
C10_6 C9_6 1_555 1_555
H6_6 C10_6 1_555 1_555
C11_6 C10_6 1_555 1_555
C12_6 C7_6 1_555 1_555
H7_6 C12_6 1_555 1_555
C14_6 C9_6 1_555 1_555
C15_6 C11_6 1_555 1_555
O5_6 C15_6 1_555 1_555
O6_6 C15_6 1_555 1_555
O23 C14_6 1_555 1_555
Co4_2 O6_6 1_555 1_555
Co10 O5_6 1_555 1_555
C11_6 C12_6 1_555 1_555
C8_7 C7_7 1_555 1_555
H5_7 C8_7 1_555 1_555
C9_7 C8_7 1_555 1_555
C10_7 C9_7 1_555 1_555
H6_7 C10_7 1_555 1_555
C11_7 C10_7 1_555 1_555
C12_7 C7_7 1_555 1_555
C14_7 C9_7 1_555 1_555
C15_7 C11_7 1_555 1_555
O17_3 C15_7 1_555 1_555
O19_3 C15_7 1_555 1_555
O21_5 C14_7 1_555 1_555
O23_5 C14_7 1_555 1_555
C11_7 C12_7 1_555 1_555
Co5_4 O2_7 1_555 1_555
Co11_2 O1_7 1_555 1_555
C1_7 C2_7 1_555 1_555
C2_7 H1_7 1_555 1_555
C3_7 C2_7 1_555 1_555
H2_7 C3_7 1_555 1_555
C4_7 C3_7 1_555 1_555
C5_7 C4_7 1_555 1_555
H3_7 C5_7 1_555 1_555
C6_7 C1_7 1_555 1_555
H4_7 C6_7 1_555 1_555
C13_7 C1_7 1_555 1_555
O1_7 C13_7 1_555 1_555
O3_7 Co5_4 1_555 1_555
O4_7 Co5_4 1_555 1_555
Co7_2 O10_7 1_555 1_555
C16_7 C17_7 1_555 1_555
C17_7 H12_7 1_555 1_555
C18_7 C17_7 1_555 1_555
H13_7 C18_7 1_555 1_555
C21_7 C16_7 1_555 1_555
C28_7 C16_7 1_555 1_555
O9_7 Co11_2 1_555 1_555
O11_7 Co7_2 1_555 1_555
O12_7 Co7_2 1_555 1_555
C5_7 C6_7 1_555 1_555
C13_7 O3_7 1_555 1_555
C28_7 O9_7 1_555 1_555
C28_7 O11_7 1_555 1_555
C23_7 C22_7 1_555 1_555
C24_7 C23_7 1_555 1_555
C25_7 C24_7 1_555 1_555
H17_7 C25_7 1_555 1_555
C26_7 C25_7 1_555 1_555
C27_7 C22_7 1_555 1_555
H18_7 C27_7 1_555 1_555
C29_7 C24_7 1_555 1_555
C30_7 C26_7 1_555 1_555
O18_6 C30_7 1_555 1_555
O20_6 C30_7 1_555 1_555
O24_2 C29_7 1_555 1_555
C26_7 C27_7 1_555 1_555
C20_7 C19_7 1_555 1_555
H14_7 C20_7 1_555 1_555
C23_8 C22_8 1_555 1_555
C24_8 C23_8 1_555 1_555
C25_8 C24_8 1_555 1_555
H17_8 C25_8 1_555 1_555
C26_8 C25_8 1_555 1_555
C27_8 C22_8 1_555 1_555
H18_8 C27_8 1_555 1_555
C29_8 C24_8 1_555 1_555
C30_8 C26_8 1_555 1_555
O18_4 C30_8 1_555 1_555
O20_4 C30_8 1_555 1_555
O24_3 C29_8 1_555 1_555
C26_8 C27_8 1_555 1_555
C20_8 C19_8 1_555 1_555
H14_8 C20_8 1_555 1_555
Co4_2 O2_8 1_555 1_555
Co10 O1_8 1_555 1_555
C1_8 C2_8 1_555 1_555
C2_8 H1_8 1_555 1_555
C3_8 C2_8 1_555 1_555
H2_8 C3_8 1_555 1_555
C4_8 C3_8 1_555 1_555
C5_8 C4_8 1_555 1_555
H3_8 C5_8 1_555 1_555
C6_8 C1_8 1_555 1_555
H4_8 C6_8 1_555 1_555
C7_8 C4_8 1_555 1_555
C8_8 C7_8 1_555 1_555
H5_8 C8_8 1_555 1_555
C9_8 C8_8 1_555 1_555
C10_8 C9_8 1_555 1_555
H6_8 C10_8 1_555 1_555
C11_8 C10_8 1_555 1_555
C12_8 C7_8 1_555 1_555
H7_8 C12_8 1_555 1_555
C13_8 C1_8 1_555 1_555
C14_8 C9_8 1_555 1_555
C15_8 C11_8 1_555 1_555
O1_8 C13_8 1_555 1_555
O3_8 Co4_2 1_555 1_555
O4_8 Co4_2 1_555 1_555
O17 C15_8 1_555 1_555
O19 C15_8 1_555 1_555
O21_6 C14_8 1_555 1_555
O23_6 C14_8 1_555 1_555
Co6 O10_8 1_555 1_555
C16_8 C17_8 1_555 1_555
C17_8 H12_8 1_555 1_555
C18_8 C17_8 1_555 1_555
H13_8 C18_8 1_555 1_555
C21_8 C16_8 1_555 1_555
C28_8 C16_8 1_555 1_555
O9_8 Co10 1_555 1_555
O11_8 Co6 1_555 1_555
O12_8 Co6 1_555 1_555
C5_8 C6_8 1_555 1_555
C11_8 C12_8 1_555 1_555
C13_8 O3_8 1_555 1_555
C28_8 O9_8 1_555 1_555
C28_8 O11_8 1_555 1_555
C23_9 C22_9 1_555 1_555
C24_9 C23_9 1_555 1_555
C25_9 C24_9 1_555 1_555
H17_9 C25_9 1_555 1_555
C26_9 C25_9 1_555 1_555
C27_9 C22_9 1_555 1_555
H18_9 C27_9 1_555 1_555
C29_9 C24_9 1_555 1_555
C30_9 C26_9 1_555 1_555
O18_5 C30_9 1_555 1_555
O20_5 C30_9 1_555 1_555
O24 C29_9 1_555 1_555
C26_9 C27_9 1_555 1_555
Co5_3 O2_9 1_555 1_555
Co11 O1_9 1_555 1_555
C1_9 C2_9 1_555 1_555
C2_9 H1_9 1_555 1_555
C3_9 C2_9 1_555 1_555
H2_9 C3_9 1_555 1_555
C4_9 C3_9 1_555 1_555
C5_9 C4_9 1_555 1_555
H3_9 C5_9 1_555 1_555
C6_9 C1_9 1_555 1_555
H4_9 C6_9 1_555 1_555
C13_9 C1_9 1_555 1_555
O1_9 C13_9 1_555 1_555
O3_9 Co5_3 1_555 1_555
O4_9 Co5_3 1_555 1_555
Co7 O10_9 1_555 1_555
C16_9 C17_9 1_555 1_555
C17_9 H12_9 1_555 1_555
C18_9 C17_9 1_555 1_555
H13_9 C18_9 1_555 1_555
C19_9 C18_9 1_555 1_555
C20_9 C19_9 1_555 1_555
H14_9 C20_9 1_555 1_555
C21_9 C16_9 1_555 1_555
H15_9 C21_9 1_555 1_555
C28_9 C16_9 1_555 1_555
O9_9 Co11 1_555 1_555
O11_9 Co7 1_555 1_555
O12_9 Co7 1_555 1_555
C5_9 C6_9 1_555 1_555
C13_9 O3_9 1_555 1_555
C20_9 C21_9 1_555 1_555
C28_9 O9_9 1_555 1_555
C28_9 O11_9 1_555 1_555
C8_9 C7_9 1_555 1_555
H5_9 C8_9 1_555 1_555
C9_9 C8_9 1_555 1_555
C10_9 C9_9 1_555 1_555
H6_9 C10_9 1_555 1_555
C11_9 C10_9 1_555 1_555
C12_9 C7_9 1_555 1_555
C14_9 C9_9 1_555 1_555
C15_9 C11_9 1_555 1_555
O17_2 C15_9 1_555 1_555
O19_2 C15_9 1_555 1_555
O21_4 C14_9 1_555 1_555
O23_4 C14_9 1_555 1_555
C11_9 C12_9 1_555 1_555

#END
