
###############################################################################
#
# This file contains modified crystal structure data generated from the
# MOF subset of the Cambridge Structural Database (CSD) v542 
# hosted by the Cambridge Crystallographic Data Centre (CCDC).
#
# This work is licensed under the Creative Commons
# Attribution-NonCommercial-ShareAlike 4.0 International License.
# To view a copy of this license, visit
# http://creativecommons.org/licenses/by-nc-sa/4.0/
# or send a letter to
# Creative Commons, PO Box 1866, Mountain View, CA 94042, USA.
#
# CIF created using the CSD Python API on 22 February 2021
# The structure has been converted into the P1 space group
# The structure has a 3D framework
# The original CSD entry FUPFOO is in the monoclinic crystal system
# The framework has been calculated to contain at least 10.0% void space
# The void calculation uses a probe of radius 1.32A, grid spacing 0.4
#
###############################################################################

data_FUPFOO
_chemical_formula_moiety         '(C292 H187 Er9 N24 O61)n'
_symmetry_cell_setting           triclinic
_symmetry_space_group_name_H-M   'P 1'
_symmetry_Int_Tables_number      1
_space_group_name_Hall           'P 1'
loop_
_symmetry_equiv_pos_site_id
_symmetry_equiv_pos_as_xyz
1 x,y,z
_cell_length_a                   14.63250(12)
_cell_length_b                   17.5524(3)
_cell_length_c                   32.0169(11)
_cell_angle_alpha                90
_cell_angle_beta                 90.269(3)
_cell_angle_gamma                90
_cell_volume                     8222.99
loop_
_atom_site_label
_atom_site_type_symbol
_atom_site_fract_x
_atom_site_fract_y
_atom_site_fract_z
C14 C 0.2184(5) 0.1170(4) 0.6101(3)
H12 H 0.1766 0.1567 0.6124
N6 N 0.3726(4) 0.0714(3) 0.6239(3)
C29 C 0.0442(4) 0.0950(3) 0.56182(18)
H21 H 0.0671 0.1444 0.5616
C30 C 0.1944(4) 0.0484(3) 0.5914(2)
C45 C 0.3475(4) 0.0072(4) 0.6053(2)
C60 C 0.0985(4) 0.0362(3) 0.57534(18)
C73 C 0.3087(6) 0.1244(5) 0.6253(3)
H43 H 0.3246 0.1708 0.6374
N2 N 0.2315(3) 0.8357(3) 0.65166(16)
O14 O 0.1161(3) 0.3932(2) 0.55417(14)
H13 H 0.0407 0.8134 0.5616
C19 C 0.1721(4) 0.7824(4) 0.64208(19)
H15 H 0.1912 0.7436 0.6243
C33 C 0.0836(4) 0.7798(3) 0.65644(18)
H23 H 0.0449 0.7404 0.6484
C34 C 0.0613(4) 0.9640(3) 0.57429(17)
H24 H 0.0947 0.9224 0.5839
C35 C 0.2617(4) 0.9942(3) 0.5894(2)
H25 H 0.2489 0.9475 0.5769
H28 H 0.3908 0.9686 0.6028
C50 C 0.2019(4) 0.8895(4) 0.6771(2)
H32 H 0.2426 0.9276 0.6851
C56 C 0.0329(4) 0.3949(3) 0.54876(18)
C67 C 0.1139(4) 0.8925(4) 0.6923(2)
H41 H 0.0959 0.9329 0.7091
C69 C 0.0531(4) 0.8357(3) 0.68268(17)
Er9 Er 0.14196(2) 0.50241(2) 0.50132(2)
O22 O 0.0058(2) 0.56691(19) 0.47951(12)
O2 O 0.6750(2) 0.3069(2) 0.45053(11)
N1 N 0.9202(3) 0.0119(2) 0.54622(14)
O8 O 0.7572(2) 0.38880(18) 0.48649(10)
O10 O 0.8139(2) 0.00288(18) 0.94119(10)
C11 C 0.9051(4) 0.2167(3) 0.5463(2)
H9 H 0.9485 0.2283 0.5666
C20 C 0.8935(4) 0.1423(3) 0.53347(18)
C25 C 0.9541(4) 0.0813(3) 0.54825(17)
C26 C 0.7870(3) 0.2588(3) 0.49832(17)
C31 C 0.8226(4) 0.1269(3) 0.50512(19)
H22 H 0.8100 0.0766 0.4982
C32 C 0.7375(3) 0.3200(3) 0.47772(16)
C42 C 0.8524(4) 0.2737(3) 0.5291(2)
H27 H 0.8606 0.3235 0.5383
C55 C 0.7709(4) 0.1841(3) 0.48712(19)
H35 H 0.7256 0.1723 0.4677
Er4 Er 0.90565(2) 0.07589(2) 0.98806(2)
Er6 Er 0.85804(2) 0.49759(2) 0.49868(2)
Er10 Er 0.64565(2) 0.43797(2) 0.43023(2)
Er8 Er 0.64196(2) 0.99759(2) 0.00132(2)
Er1 Er 0.59435(2) 0.57589(2) 0.51194(2)
O1 O 0.7199(2) 0.53750(19) 0.46734(11)
O3 O 0.7169(2) 0.9267(2) 0.10489(11)
O4 O 0.5197(2) 0.60210(19) 0.57867(10)
O5 O 0.6751(2) 0.95341(19) 0.93277(11)
O6 O 0.7119(2) 0.66474(19) 0.52727(11)
O7 O 0.9942(2) 0.43309(19) 0.52049(12)
O9 O 0.5465(2) 0.56476(19) 0.43736(10)
C1 C 0.9357(3) 0.7428(3) 0.55091(18)
H1 H 0.9698 0.6982 0.5528
O11 O 0.4245(2) 0.6336(2) 0.62908(11)
C2 C 0.5698(3) 0.6713(3) 0.34093(17)
H2 H 0.6209 0.6467 0.3303
O12 O 0.6241(2) 0.5383(2) 0.38027(11)
O13 O 0.5931(2) 0.9452(2) 0.06506(12)
C3 C 0.8823(3) 0.9408(3) 0.81820(16)
H3 H 0.9375 0.9558 0.8065
O15 O 0.8452(2) 0.60660(19) 0.53791(11)
C4 C 0.8592(3) 0.9652(3) 0.85768(16)
H4 H 0.8996 0.9961 0.8724
C5 C 0.5349(3) 0.6500(3) 0.37968(16)
C6 C 0.6100(4) 0.9103(4) 0.17585(19)
H5 H 0.6730 0.9052 0.1783
C7 C 0.7170(3) 0.8985(3) 0.85317(16)
H6 H 0.6611 0.8845 0.8646
O16 O 0.5689(2) 0.44667(18) 0.49426(10)
C8 C 0.7398(3) 0.6986(3) 0.64464(16)
H7 H 0.7998 0.6876 0.6373
C9 C 0.4187(4) 0.7452(3) 0.37381(16)
H8 H 0.3693 0.7710 0.3853
C10 C 0.5723(4) 0.9280(3) 0.13712(18)
C12 C 0.4613(4) 0.6883(3) 0.39630(16)
H10 H 0.4403 0.6757 0.4228
N3 N 0.7813(3) 0.8256(2) 0.73319(13)
C13 C 0.7931(4) 0.8050(3) 0.5406(2)
H11 H 0.7306 0.8031 0.5348
C15 C 0.9781(3) 0.8116(3) 0.55637(17)
C16 C 0.8226(3) 0.8933(3) 0.79554(15)
N5 N 0.4469(3) 0.8433(3) 0.27299(14)
C17 C 0.4770(4) 0.9379(3) 0.13427(17)
H14 H 0.4501 0.9508 0.1089
C18 C 0.8422(3) 0.7387(3) 0.54262(16)
C21 C 0.9369(3) 0.8678(3) 0.73784(17)
H16 H 0.9820 0.8934 0.7528
C22 C 0.7776(3) 0.9448(3) 0.87591(16)
C23 C 0.6692(4) 0.6609(3) 0.62475(16)
H17 H 0.6819 0.6254 0.6040
C24 C 0.4235(4) 0.9284(3) 0.16939(17)
H18 H 0.3608 0.9365 0.1675
C27 C 0.5615(3) 0.7292(3) 0.66642(16)
H19 H 0.5016 0.7399 0.6740
C28 C 0.6323(4) 0.7662(3) 0.68565(17)
H20 H 0.6193 0.8017 0.7063
C36 C 0.7532(3) 0.9683(3) 0.91970(15)
C37 C 0.8484(3) 0.8625(3) 0.75367(16)
C38 C 0.9291(3) 0.8778(3) 0.55416(17)
C39 C 0.9574(4) 0.8346(3) 0.69974(17)
C40 C 0.5030(3) 0.6358(3) 0.61374(15)
C41 C 0.3130(4) 0.9077(3) 0.24830(18)
H26 H 0.2853 0.9388 0.2284
C43 C 0.9719(4) 0.9540(3) 0.55840(17)
C44 C 0.5792(3) 0.6760(3) 0.63568(15)
C46 C 0.5287(3) 0.7287(3) 0.31856(17)
H29 H 0.5534 0.7440 0.2932
C47 C 0.7406(4) 0.8740(3) 0.81413(17)
H30 H 0.6999 0.8431 0.7995
C48 C 0.5568(4) 0.9003(4) 0.21037(19)
H31 H 0.5840 0.8889 0.2359
C49 C 0.1638(4) 0.8980(3) 0.28537(19)
C51 C 0.5711(3) 0.5810(3) 0.40067(17)
C52 C 0.8349(4) 0.8732(3) 0.5461(2)
H33 H 0.8006 0.9177 0.5445
C53 C 0.4005(4) 0.8174(3) 0.30571(16)
C54 C 0.0167(4) 0.9165(4) 0.2537(3)
H36 H 0.9964 0.3663 0.5666
C57 C 0.3084(4) 0.8357(3) 0.31114(17)
H37 H 0.2769 0.8172 0.3342
C58 C 0.7232(3) 0.7525(3) 0.67540(16)
C59 C 0.4494(4) 0.7644(3) 0.33363(16)
C61 C 0.0272(5) 0.9232(5) 0.3238(3)
C62 C 0.8863(3) 0.7978(3) 0.67826(17)
H39 H 0.8968 0.7764 0.6522
C63 C 0.8007(3) 0.7934(3) 0.69599(16)
C64 C 0.4619(4) 0.9070(3) 0.20755(17)
C65 C 0.2638(4) 0.8816(3) 0.28219(17)
C66 C 0.1223(5) 0.9090(5) 0.3240(2)
H40 H 0.1557 0.9070 0.3488
C68 C 0.6315(4) 0.9341(3) 0.09958(18)
C70 C 0.7966(3) 0.6643(3) 0.53552(15)
C71 C 0.4055(3) 0.8867(3) 0.24434(17)
C72 C 0.1097(4) 0.9021(3) 0.2500(2)
H42 H 0.1354 0.8952 0.2238
O17 O 0.5375(3) 0.6920(2) 0.49902(14)
Er5 Er 0.40565(2) 0.42411(2) 0.48806(2)
Er11 Er 0.85435(2) 0.93797(2) 0.06977(2)
Er12 Er 0.35435(2) 0.56203(2) 0.56977(2)
O19 O 0.7831(2) 0.4267(2) 0.39511(11)
O20 O 0.4803(2) 0.39790(19) 0.42133(10)
O21 O 0.8249(2) 0.45341(19) 0.56723(11)
O24 O 0.6861(2) 0.50288(18) 0.55881(10)
O25 O 0.5755(2) 0.3664(2) 0.37092(11)
O26 O 0.9069(2) 0.4452(2) 0.43494(12)
O27 O 0.8839(3) 0.6068(2) 0.44583(14)
O28 O 0.4311(2) 0.55333(18) 0.50574(10)
O11_2 O 0.0755(2) 0.1336(2) 0.87092(11)
Er12_2 Er 0.14565(2) 0.06203(2) 0.93023(2)
O28_2 O 0.0689(2) 0.05333(18) 0.99426(10)
Er5_2 Er 0.09435(2) 0.92411(2) 0.01194(2)
O20_2 O 0.0197(2) 0.89790(19) 0.07867(10)
O1_2 O 0.7801(2) 0.03750(19) 0.03266(11)
O2_2 O 0.8250(2) 0.8069(2) 0.04947(11)
O8_2 O 0.7428(2) 0.88880(18) 0.01351(10)
O9_2 O 0.9535(2) 0.06476(19) 0.06264(10)
C2_2 C 0.9302(3) 0.1713(3) 0.15907(17)
H2_2 H 0.8791 0.1467 0.1697
O12_2 O 0.8759(2) 0.0383(2) 0.11973(11)
C5_2 C 0.9651(3) 0.1500(3) 0.12032(16)
C6_2 C 0.8900(4) 0.4103(4) 0.32415(19)
H5_2 H 0.8270 0.4052 0.3217
C10_2 C 0.9277(4) 0.4280(3) 0.36288(18)
C26_2 C 0.7130(3) 0.7588(3) 0.00168(17)
H22_2 H 0.6900 0.5766 0.0018
C32_2 C 0.7625(3) 0.8200(3) 0.02228(16)
C46_2 C 0.9713(3) 0.2287(3) 0.18144(17)
H29_2 H 0.9466 0.2440 0.2068
C48_2 C 0.9432(4) 0.4003(4) 0.28963(19)
H31_2 H 0.9160 0.3889 0.2641
C51_2 C 0.9289(3) 0.0810(3) 0.09933(17)
C55_2 C 0.7291(4) 0.6841(3) 0.01288(19)
H35_2 H 0.7744 0.6723 0.0323
C68_2 C 0.8685(4) 0.4341(3) 0.40042(18)
O17_2 O 0.9625(3) 0.1920(2) 0.00098(14)
O22_2 O 0.4942(2) 0.06691(19) 0.02049(12)
O27_2 O 0.6161(3) 0.1068(2) 0.05417(14)
O4_2 O 0.9803(2) 0.10210(19) 0.92133(10)
O6_2 O 0.7881(2) 0.16474(19) 0.97273(11)
N1_2 N 0.5798(3) 0.5119(2) 0.95378(14)
N2_2 N 0.2685(3) 0.3357(3) 0.84834(16)
C1_2 C 0.5643(3) 0.2428(3) 0.94909(18)
H1_2 H 0.5302 0.1982 0.9472
C3_2 C 0.6177(3) 0.4408(3) 0.68180(16)
H3_2 H 0.5625 0.4558 0.6935
O15_2 O 0.6548(2) 0.10660(19) 0.96209(11)
C4_2 C 0.6408(3) 0.4652(3) 0.64232(16)
H4_2 H 0.6004 0.4961 0.6276
C7_2 C 0.7830(3) 0.3985(3) 0.64683(16)
H6_2 H 0.8389 0.3845 0.6354
C8_2 C 0.7602(3) 0.1986(3) 0.85536(16)
H7_2 H 0.7002 0.1876 0.8627
C11_2 C 0.5949(4) 0.7167(3) 0.9537(2)
H9_2 H 0.5515 0.7283 0.9334
N3_2 N 0.7187(3) 0.3256(2) 0.76681(13)
C13_2 C 0.7069(4) 0.3050(3) 0.9594(2)
H11_2 H 0.7694 0.3031 0.9652
C14_2 C 0.2816(5) 0.6170(4) 0.8899(3)
H12_2 H 0.3234 0.6567 0.8876
C15_2 C 0.5219(3) 0.3116(3) 0.94363(17)
H13_2 H 0.4593 0.3134 0.9384
C16_2 C 0.6774(3) 0.3933(3) 0.70446(15)
N6_2 N 0.1274(4) 0.5714(3) 0.8761(3)
C18_2 C 0.6578(3) 0.2387(3) 0.95738(16)
C19_2 C 0.3279(4) 0.2824(4) 0.85792(19)
H15_2 H 0.3088 0.2436 0.8757
C20_2 C 0.6065(4) 0.6423(3) 0.96653(18)
C21_2 C 0.5631(3) 0.3678(3) 0.76216(17)
H16_2 H 0.5180 0.3934 0.7472
C22_2 C 0.7224(3) 0.4448(3) 0.62409(16)
C23_2 C 0.8308(4) 0.1609(3) 0.87525(16)
H17_2 H 0.8181 0.1254 0.8960
C25_2 C 0.5459(4) 0.5813(3) 0.95175(17)
C27_2 C 0.9385(3) 0.2292(3) 0.83358(16)
H19_2 H 0.9984 0.2399 0.8260
C28_2 C 0.8677(4) 0.2662(3) 0.81435(17)
H20_2 H 0.8807 0.3017 0.7937
C29_2 C 0.4558(4) 0.5950(3) 0.93818(18)
H21_2 H 0.4329 0.6444 0.9384
C30_2 C 0.3056(4) 0.5484(3) 0.9086(2)
C31_2 C 0.6774(4) 0.6269(3) 0.99488(19)
C33_2 C 0.4164(4) 0.2798(3) 0.84356(18)
H23_2 H 0.4551 0.2404 0.8516
C34_2 C 0.4387(4) 0.4640(3) 0.92571(17)
H24_2 H 0.4053 0.4224 0.9161
C35_2 C 0.2383(4) 0.4942(3) 0.9106(2)
H25_2 H 0.2511 0.4475 0.9231
C36_2 C 0.7468(3) 0.4683(3) 0.58030(15)
C37_2 C 0.6516(3) 0.3625(3) 0.74633(16)
C38_2 C 0.5709(3) 0.3778(3) 0.94584(17)
C39_2 C 0.5426(4) 0.3346(3) 0.80026(17)
C40_2 C 0.9970(3) 0.1358(3) 0.88626(15)
C42_2 C 0.6476(4) 0.7737(3) 0.9709(2)
H27_2 H 0.6394 0.8235 0.9617
C43_2 C 0.5281(4) 0.4540(3) 0.94160(17)
C44_2 C 0.9208(3) 0.1760(3) 0.86432(15)
C45_2 C 0.1525(4) 0.5072(4) 0.8947(2)
H28_2 H 0.1092 0.4686 0.8972
C47_2 C 0.7594(4) 0.3740(3) 0.68587(17)
H30_2 H 0.8001 0.3431 0.7005
C50_2 C 0.2981(4) 0.3895(4) 0.8229(2)
H32_2 H 0.2574 0.4276 0.8149
C52_2 C 0.6651(4) 0.3732(3) 0.9539(2)
H33_2 H 0.6994 0.4177 0.9555
C58_2 C 0.7768(3) 0.2525(3) 0.82460(16)
C60_2 C 0.4015(4) 0.5362(3) 0.92466(18)
C62_2 C 0.6137(3) 0.2978(3) 0.82174(17)
H39_2 H 0.6032 0.2764 0.8478
C63_2 C 0.6993(3) 0.2934(3) 0.80401(16)
C67_2 C 0.3861(4) 0.3925(4) 0.8077(2)
H41_2 H 0.4041 0.4329 0.7909
C69_2 C 0.4469(4) 0.3357(3) 0.81732(17)
C70_2 C 0.7034(3) 0.1643(3) 0.96448(15)
C73_2 C 0.1913(6) 0.6244(5) 0.8747(3)
H43_2 H 0.1754 0.6708 0.8626
Er9_2 Er 0.35804(2) 0.00241(2) 0.99868(2)
O16_2 O 0.9311(2) 0.94667(18) 0.00574(10)
O25_2 O 0.9245(2) 0.8664(2) 0.12908(11)
O7_2 O 0.5058(2) 0.93309(19) 0.97951(12)
O14_2 O 0.3839(3) 0.8932(2) 0.94583(14)
C56_2 C 0.4671(4) 0.8949(3) 0.95124(18)
H36_2 H 0.5036 0.8663 0.9334
O1_3 O 0.2801(2) 0.46250(19) 0.53266(11)
O3_2 O 0.2831(2) 0.0733(2) 0.89511(11)
O5_2 O 0.3249(2) 0.04659(19) 0.06723(11)
O6_3 O 0.2881(2) 0.33526(19) 0.47273(11)
O9_3 O 0.4535(2) 0.43524(19) 0.56264(10)
C1_3 C 0.0643(3) 0.2572(3) 0.44909(18)
H1_3 H 0.0302 0.3018 0.4472
C2_3 C 0.4302(3) 0.3287(3) 0.65907(17)
H2_3 H 0.3791 0.3533 0.6697
O12_3 O 0.3759(2) 0.4617(2) 0.61973(11)
O13_2 O 0.4069(2) 0.0548(2) 0.93494(12)
C3_3 C 0.1177(3) 0.0592(3) 0.18180(16)
H3_3 H 0.0625 0.0442 0.1935
O15_3 O 0.1548(2) 0.39340(19) 0.46209(11)
C4_3 C 0.1408(3) 0.0348(3) 0.14232(16)
H4_3 H 0.1004 0.0039 0.1276
C5_3 C 0.4651(3) 0.3500(3) 0.62032(16)
C6_3 C 0.3900(4) 0.0897(4) 0.82415(19)
H5_3 H 0.3270 0.0948 0.8217
C7_3 C 0.2830(3) 0.1015(3) 0.14683(16)
H6_3 H 0.3389 0.1155 0.1354
C8_3 C 0.2602(3) 0.3014(3) 0.35536(16)
H7_3 H 0.2002 0.3124 0.3627
C9_2 C 0.5813(4) 0.2548(3) 0.62619(16)
H8_2 H 0.6307 0.2290 0.6147
C10_3 C 0.4277(4) 0.0720(3) 0.86288(18)
C12_2 C 0.5387(4) 0.3117(3) 0.60370(16)
H10_2 H 0.5597 0.3243 0.5772
N3_3 N 0.2187(3) 0.1744(2) 0.26681(13)
C13_3 C 0.2069(4) 0.1950(3) 0.4594(2)
H11_3 H 0.2694 0.1969 0.4652
C15_3 C 0.0219(3) 0.1884(3) 0.44363(17)
C16_3 C 0.1774(3) 0.1067(3) 0.20446(15)
N5_2 N 0.5531(3) 0.1567(3) 0.72701(14)
C17_2 C 0.5230(4) 0.0621(3) 0.86573(17)
H14_2 H 0.5499 0.0492 0.8911
C18_3 C 0.1578(3) 0.2613(3) 0.45738(16)
C21_3 C 0.0631(3) 0.1322(3) 0.26216(17)
H16_3 H 0.0180 0.1066 0.2472
C22_3 C 0.2224(3) 0.0552(3) 0.12409(16)
C23_3 C 0.3308(4) 0.3391(3) 0.37525(16)
H17_3 H 0.3181 0.3746 0.3960
C24_2 C 0.5765(4) 0.0716(3) 0.83061(17)
H18_2 H 0.6392 0.0635 0.8325
C27_3 C 0.4385(3) 0.2708(3) 0.33358(16)
H19_3 H 0.4984 0.2601 0.3260
C28_3 C 0.3677(4) 0.2338(3) 0.31435(17)
H20_3 H 0.3807 0.1983 0.2937
C36_3 C 0.2468(3) 0.0317(3) 0.08030(15)
C37_3 C 0.1516(3) 0.1375(3) 0.24633(16)
C38_3 C 0.0709(3) 0.1222(3) 0.44584(17)
C39_3 C 0.0426(4) 0.1654(3) 0.30026(17)
C40_3 C 0.4970(3) 0.3642(3) 0.38626(15)
C41_2 C 0.6870(4) 0.0923(3) 0.75170(18)
H26_2 H 0.7147 0.0612 0.7716
C43_3 C 0.0281(4) 0.0460(3) 0.44160(17)
C44_3 C 0.4208(3) 0.3240(3) 0.36432(15)
C46_3 C 0.4713(3) 0.2713(3) 0.68144(17)
H29_3 H 0.4466 0.2560 0.7068
C47_3 C 0.2594(4) 0.1260(3) 0.18587(17)
H30_3 H 0.3001 0.1569 0.2005
C48_3 C 0.4432(4) 0.0997(4) 0.78963(19)
H31_3 H 0.4160 0.1111 0.7641
C49_2 C 0.8362(4) 0.1020(3) 0.71463(19)
C51_3 C 0.4289(3) 0.4190(3) 0.59933(17)
C52_3 C 0.1651(4) 0.1268(3) 0.4539(2)
H33_3 H 0.1994 0.0823 0.4555
C53_2 C 0.5995(4) 0.1826(3) 0.69429(16)
C54_2 C 0.9833(4) 0.0835(4) 0.7463(3)
H36_3 H 0.0036 0.6337 0.4334
C57_2 C 0.6916(4) 0.1643(3) 0.68886(17)
H37_2 H 0.7231 0.1828 0.6658
C58_3 C 0.2768(3) 0.2475(3) 0.32460(16)
C59_2 C 0.5506(4) 0.2356(3) 0.66637(16)
C61_2 C 0.9728(5) 0.0768(5) 0.6762(3)
C62_3 C 0.1137(3) 0.2022(3) 0.32174(17)
H39_3 H 0.1032 0.2236 0.3478
C63_3 C 0.1993(3) 0.2066(3) 0.30401(16)
C64_2 C 0.5381(4) 0.0930(3) 0.79245(17)
C65_2 C 0.7362(4) 0.1184(3) 0.71781(17)
C66_2 C 0.8777(5) 0.0910(5) 0.6760(2)
H40_2 H 0.8443 0.0930 0.6512
C68_3 C 0.3685(4) 0.0659(3) 0.90042(18)
C70_3 C 0.2034(3) 0.3357(3) 0.46448(15)
C71_2 C 0.5945(3) 0.1133(3) 0.75566(17)
C72_2 C 0.8903(4) 0.0979(3) 0.7500(2)
H42_2 H 0.8646 0.1048 0.7762
O17_3 O 0.4625(3) 0.3080(2) 0.50098(14)
O18 O 0.3250(2) 0.6931(2) 0.54947(11)
O19_2 O 0.2169(2) 0.5733(2) 0.60489(11)
O21_2 O 0.1751(2) 0.54659(19) 0.43277(11)
O23 O 0.2428(2) 0.61120(18) 0.51351(10)
O24_2 O 0.3139(2) 0.49712(18) 0.44119(10)
O26_2 O 0.0931(2) 0.5548(2) 0.56506(12)
N1_3 N 0.0798(3) 0.9881(2) 0.45378(14)
O10_2 O 0.1861(2) 0.99712(18) 0.05881(10)
C11_3 C 0.0949(4) 0.7833(3) 0.4537(2)
H9_3 H 0.0515 0.7717 0.4334
C20_3 C 0.1065(4) 0.8577(3) 0.46653(18)
C25_3 C 0.0459(4) 0.9187(3) 0.45175(17)
C26_3 C 0.2130(3) 0.7412(3) 0.50168(17)
C31_3 C 0.1774(4) 0.8731(3) 0.49488(19)
H22_3 H 0.1900 0.9234 0.5018
C32_3 C 0.2625(3) 0.6800(3) 0.52228(16)
C42_3 C 0.1476(4) 0.7263(3) 0.4709(2)
H27_3 H 0.1394 0.6765 0.4617
C55_3 C 0.2291(4) 0.8159(3) 0.51288(19)
H35_3 H 0.2744 0.8277 0.5323
N2_3 N 0.7685(3) 0.1643(3) 0.34834(16)
H13_3 H 0.9593 0.1866 0.4384
C19_3 C 0.8279(4) 0.2176(4) 0.35792(19)
H15_3 H 0.8088 0.2564 0.3757
C33_3 C 0.9164(4) 0.2202(3) 0.34356(18)
H23_3 H 0.9551 0.2596 0.3516
C34_3 C 0.9387(4) 0.0360(3) 0.42571(17)
H24_3 H 0.9053 0.0776 0.4161
C35_3 C 0.7383(4) 0.0058(3) 0.4106(2)
H25_3 H 0.7511 0.0525 0.4231
H28_3 H 0.6092 0.0314 0.3972
C50_3 C 0.7981(4) 0.1105(4) 0.3229(2)
H32_3 H 0.7574 0.0724 0.3149
C56_3 C 0.9671(4) 0.6051(3) 0.45124(18)
C67_3 C 0.8861(4) 0.1075(4) 0.3077(2)
H41_3 H 0.9041 0.0671 0.2909
C69_3 C 0.9469(4) 0.1643(3) 0.31732(17)
C56_4 C 0.5329(4) 0.1051(3) 0.04876(18)
H36_4 H 0.4964 0.1337 0.0666
O18_2 O 0.1750(2) 0.1931(2) 0.95053(11)
O23_2 O 0.2572(2) 0.11120(18) 0.98649(10)
O6_4 O 0.2119(2) 0.83526(19) 0.02727(11)
N1_4 N 0.4202(3) 0.4881(2) 0.04622(14)
N2_4 N 0.7315(3) 0.6643(3) 0.15166(16)
C1_4 C 0.4357(3) 0.7572(3) 0.05091(18)
H1_4 H 0.4698 0.8018 0.0528
C3_4 C 0.3823(3) 0.5592(3) 0.31820(16)
H3_4 H 0.4375 0.5442 0.3065
O15_4 O 0.3452(2) 0.89340(19) 0.03791(11)
C4_4 C 0.3592(3) 0.5348(3) 0.35768(16)
H4_4 H 0.3996 0.5039 0.3724
C7_4 C 0.2170(3) 0.6015(3) 0.35317(16)
H6_4 H 0.1611 0.6155 0.3646
C8_4 C 0.2398(3) 0.8014(3) 0.14464(16)
H7_4 H 0.2998 0.8124 0.1373
C11_4 C 0.4051(4) 0.2833(3) 0.0463(2)
H9_4 H 0.4485 0.2717 0.0666
N3_4 N 0.2813(3) 0.6744(2) 0.23319(13)
C13_4 C 0.2931(4) 0.6950(3) 0.0406(2)
H11_4 H 0.2306 0.6969 0.0348
C14_3 C 0.7184(5) 0.3830(4) 0.1101(3)
H12_3 H 0.6766 0.3433 0.1124
C15_4 C 0.4781(3) 0.6884(3) 0.05637(17)
H13_4 H 0.5407 0.6866 0.0616
C16_4 C 0.3226(3) 0.6067(3) 0.29554(15)
N6_3 N 0.8726(4) 0.4286(3) 0.1239(3)
C18_4 C 0.3422(3) 0.7613(3) 0.04262(16)
C19_4 C 0.6721(4) 0.7176(4) 0.14208(19)
H15_4 H 0.6912 0.7564 0.1243
C20_4 C 0.3935(4) 0.3577(3) 0.03347(18)
C21_4 C 0.4369(3) 0.6322(3) 0.23784(17)
H16_4 H 0.4820 0.6066 0.2528
C22_4 C 0.2776(3) 0.5552(3) 0.37591(16)
C23_4 C 0.1692(4) 0.8391(3) 0.12475(16)
H17_4 H 0.1819 0.8746 0.1040
C25_4 C 0.4541(4) 0.4187(3) 0.04825(17)
C27_4 C 0.0615(3) 0.7708(3) 0.16642(16)
H19_4 H 0.0016 0.7601 0.1740
C28_4 C 0.1323(4) 0.7338(3) 0.18565(17)
H20_4 H 0.1193 0.6983 0.2063
C29_3 C 0.5442(4) 0.4050(3) 0.06182(18)
H21_3 H 0.5671 0.3556 0.0616
C30_3 C 0.6944(4) 0.4516(3) 0.0914(2)
C31_4 C 0.3226(4) 0.3731(3) 0.00512(19)
C33_4 C 0.5836(4) 0.7202(3) 0.15644(18)
H23_4 H 0.5449 0.7596 0.1484
C34_4 C 0.5613(4) 0.5360(3) 0.07429(17)
H24_4 H 0.5947 0.5776 0.0839
C35_4 C 0.7617(4) 0.5058(3) 0.0894(2)
H25_4 H 0.7489 0.5525 0.0769
C36_4 C 0.2532(3) 0.5317(3) 0.41970(15)
C37_4 C 0.3484(3) 0.6375(3) 0.25367(16)
C38_4 C 0.4291(3) 0.6222(3) 0.05416(17)
C39_4 C 0.4574(4) 0.6654(3) 0.19974(17)
C40_4 C 0.0030(3) 0.8642(3) 0.11374(15)
C42_4 C 0.3524(4) 0.2263(3) 0.0291(2)
H27_4 H 0.3606 0.1765 0.0383
C43_4 C 0.4719(4) 0.5460(3) 0.05840(17)
C44_4 C 0.0792(3) 0.8240(3) 0.13568(15)
C45_3 C 0.8475(4) 0.4928(4) 0.1053(2)
H28_4 H 0.8908 0.5314 0.1028
C47_4 C 0.2406(4) 0.6260(3) 0.31413(17)
H30_4 H 0.1999 0.6569 0.2995
C50_4 C 0.7019(4) 0.6105(4) 0.1771(2)
H32_4 H 0.7426 0.5724 0.1851
C52_4 C 0.3349(4) 0.6268(3) 0.0461(2)
H33_4 H 0.3006 0.5823 0.0445
C58_4 C 0.2232(3) 0.7475(3) 0.17540(16)
C60_3 C 0.5985(4) 0.4638(3) 0.07534(18)
C62_4 C 0.3863(3) 0.7022(3) 0.17826(17)
H39_4 H 0.3968 0.7236 0.1522
C63_4 C 0.3007(3) 0.7066(3) 0.19599(16)
C67_4 C 0.6139(4) 0.6075(4) 0.1923(2)
H41_4 H 0.5959 0.5671 0.2091
C69_4 C 0.5531(4) 0.6643(3) 0.18268(17)
C70_4 C 0.2966(3) 0.8357(3) 0.03552(15)
C73_3 C 0.8087(6) 0.3756(5) 0.1253(3)
H43_3 H 0.8246 0.3292 0.1374
O1_4 O 0.2199(2) 0.96250(19) 0.96734(11)
O9_4 O 0.0465(2) 0.93524(19) 0.93736(10)
C2_4 C 0.0698(3) 0.8287(3) 0.84093(17)
H2_4 H 0.1209 0.8533 0.8303
O12_4 O 0.1241(2) 0.9617(2) 0.88027(11)
C5_4 C 0.0349(3) 0.8500(3) 0.87968(16)
C6_4 C 0.1100(4) 0.5897(4) 0.67585(19)
H5_4 H 0.1730 0.5948 0.6783
C10_4 C 0.0723(4) 0.5720(3) 0.63712(18)
C26_4 C 0.2870(3) 0.2412(3) 0.99832(17)
H22_4 H 0.3100 0.4234 0.9982
C32_4 C 0.2375(3) 0.1800(3) 0.97772(16)
C46_4 C 0.0287(3) 0.7713(3) 0.81856(17)
H29_4 H 0.0534 0.7560 0.7932
C48_4 C 0.0568(4) 0.5997(4) 0.71037(19)
H31_4 H 0.0840 0.6111 0.7359
C51_4 C 0.0711(3) 0.9190(3) 0.90067(17)
C55_4 C 0.2709(4) 0.3159(3) 0.98712(19)
H35_4 H 0.2256 0.3277 0.9677
C68_4 C 0.1315(4) 0.5659(3) 0.59958(18)
O17_4 O 0.0375(3) 0.8080(2) 0.99902(14)
N4 N 0.9755(4) 0.9268(4) 0.2901(2)
H34 H 0.9817 0.9191 0.2294
H38 H 0.9990 0.9306 0.3495
C9_3 C 0.0813(4) 0.2452(3) 0.12619(16)
H8_3 H 0.1307 0.2710 0.1147
C12_3 C 0.0387(4) 0.1883(3) 0.10370(16)
H10_3 H 0.0597 0.1757 0.0772
N4_2 N 0.5245(4) 0.4268(4) 0.2099(2)
N5_3 N 0.0531(3) 0.3433(3) 0.22701(14)
C17_3 C 0.0230(4) 0.4379(3) 0.36573(17)
H14_3 H 0.0499 0.4508 0.3911
C24_3 C 0.0765(4) 0.4284(3) 0.33061(17)
H18_3 H 0.1392 0.4365 0.3325
C41_3 C 0.1870(4) 0.4077(3) 0.25170(18)
H26_3 H 0.2147 0.4388 0.2716
C49_3 C 0.3362(4) 0.3980(3) 0.21463(19)
C53_3 C 0.0995(4) 0.3174(3) 0.19429(16)
C54_3 C 0.4833(4) 0.4165(4) 0.2463(3)
H34_2 H 0.5183 0.4191 0.2706
C57_3 C 0.1916(4) 0.3357(3) 0.18886(17)
H37_3 H 0.2231 0.3172 0.1658
C59_3 C 0.0506(4) 0.2644(3) 0.16637(16)
C61_3 C 0.4728(5) 0.4232(5) 0.1762(3)
H38_2 H 0.5010 0.4306 0.1505
C64_3 C 0.0381(4) 0.4070(3) 0.29245(17)
C65_3 C 0.2362(4) 0.3816(3) 0.21781(17)
C66_3 C 0.3777(5) 0.4090(5) 0.1760(2)
H40_3 H 0.3443 0.4070 0.1512
C71_3 C 0.0945(3) 0.3867(3) 0.25566(17)
C72_3 C 0.3903(4) 0.4021(3) 0.2500(2)
H42_3 H 0.3646 0.3952 0.2762
N4_3 N 0.0245(4) 0.0732(4) 0.7099(2)
H34_3 H 0.0183 0.0809 0.7706
H38_3 H 0.0010 0.0694 0.6505
C14_4 C 0.7816(5) 0.8830(4) 0.3899(3)
H12_4 H 0.8234 0.8433 0.3876
N6_4 N 0.6274(4) 0.9286(3) 0.3761(3)
C29_4 C 0.9558(4) 0.9050(3) 0.43818(18)
H21_4 H 0.9329 0.8556 0.4384
C30_4 C 0.8056(4) 0.9516(3) 0.4086(2)
C45_4 C 0.6525(4) 0.9928(4) 0.3947(2)
C60_4 C 0.9015(4) 0.9638(3) 0.42466(18)
C73_4 C 0.6913(6) 0.8756(5) 0.3747(3)
H43_4 H 0.6754 0.8292 0.3626
C9_4 C 0.9187(4) 0.7548(3) 0.87381(16)
H8_4 H 0.8693 0.7290 0.8853
C12_4 C 0.9613(4) 0.8117(3) 0.89630(16)
H10_4 H 0.9403 0.8243 0.9228
N4_4 N 0.4755(4) 0.5732(4) 0.7901(2)
N5_4 N 0.9469(3) 0.6567(3) 0.77299(14)
C17_4 C 0.9770(4) 0.5621(3) 0.63427(17)
H14_4 H 0.9501 0.5492 0.6089
C24_4 C 0.9235(4) 0.5716(3) 0.66939(17)
H18_4 H 0.8608 0.5635 0.6675
C41_4 C 0.8130(4) 0.5923(3) 0.74830(18)
H26_4 H 0.7853 0.5612 0.7284
C49_4 C 0.6638(4) 0.6020(3) 0.78537(19)
C53_4 C 0.9005(4) 0.6826(3) 0.80571(16)
C54_4 C 0.5167(4) 0.5835(4) 0.7537(3)
H34_4 H 0.4817 0.5809 0.7294
C57_4 C 0.8084(4) 0.6643(3) 0.81114(17)
H37_4 H 0.7769 0.6828 0.8342
C59_4 C 0.9494(4) 0.7356(3) 0.83363(16)
C61_4 C 0.5272(5) 0.5768(5) 0.8238(3)
H38_4 H 0.4990 0.5694 0.8495
C64_4 C 0.9619(4) 0.5930(3) 0.70755(17)
C65_4 C 0.7638(4) 0.6184(3) 0.78219(17)
C66_4 C 0.6223(5) 0.5910(5) 0.8240(2)
H40_4 H 0.6557 0.5930 0.8488
C71_4 C 0.9055(3) 0.6133(3) 0.74434(17)
C72_4 C 0.6097(4) 0.5979(3) 0.7500(2)
H42_4 H 0.6354 0.6048 0.7238
loop_
_geom_bond_atom_site_label_1
_geom_bond_atom_site_label_2
_geom_bond_site_symmetry_1
_geom_bond_site_symmetry_2
C14 H12 1_555 1_555
N6 C45 1_555 1_555
H21 C29 1_555 1_555
C30 C14 1_555 1_555
C60 C29 1_555 1_555
C73 C14 1_555 1_555
H43 C73 1_555 1_555
N6 C73 1_555 1_555
C30 C60 1_555 1_555
N2 C19 1_555 1_555
O14 C56 1_555 1_555
C19 H15 1_555 1_555
C33 C19 1_555 1_555
H23 C33 1_555 1_555
C34 H24 1_555 1_555
H25 C35 1_555 1_555
C50 N2 1_555 1_555
H32 C50 1_555 1_555
C67 C50 1_555 1_555
H41 C67 1_555 1_555
C69 C33 1_555 1_555
O14 Er9 1_555 1_555
C67 C69 1_555 1_555
Er9 O22 1_555 1_555
O2 C32 1_555 1_555
N1 C25 1_555 1_555
O8 C32 1_555 1_555
C11 H9 1_555 1_555
C20 C11 1_555 1_555
C25 C20 1_555 1_555
C26 C32 1_555 1_555
C31 C20 1_555 1_555
H22 C31 1_555 1_555
C42 C11 1_555 1_555
H27 C42 1_555 1_555
C55 C26 1_555 1_555
H35 C55 1_555 1_555
Er4 O10 1_555 1_555
Er6 O8 1_555 1_555
Er10 O2 1_555 1_555
O8 Er10 1_555 1_555
C26 C42 1_555 1_555
C31 C55 1_555 1_555
Er1 O1 1_555 1_555
Er6 O1 1_555 1_555
Er10 O1 1_555 1_555
O3 C68 1_555 1_555
O4 Er1 1_555 1_555
O5 C36 1_555 1_555
O6 Er1 1_555 1_555
O7 Er6 1_555 1_555
O9 Er1 1_555 1_555
C1 H1 1_555 1_555
O11 C40 1_555 1_555
C2 H2 1_555 1_555
O12 Er10 1_555 1_555
O13 C68 1_555 1_555
C3 H3 1_555 1_555
O15 Er6 1_555 1_555
C4 C3 1_555 1_555
H4 C4 1_555 1_555
C5 C2 1_555 1_555
C6 H5 1_555 1_555
C7 H6 1_555 1_555
O16 Er1 1_555 1_555
C8 H7 1_555 1_555
C9 H8 1_555 1_555
C10 C6 1_555 1_555
C12 C5 1_555 1_555
H10 C12 1_555 1_555
N3 C37 1_555 1_555
C13 H11 1_555 1_555
C15 C1 1_555 1_555
C16 C3 1_555 1_555
N5 C53 1_555 1_555
C17 C10 1_555 1_555
H14 C17 1_555 1_555
C18 C1 1_555 1_555
C21 H16 1_555 1_555
C22 C4 1_555 1_555
C23 C8 1_555 1_555
H17 C23 1_555 1_555
C24 C17 1_555 1_555
H18 C24 1_555 1_555
C27 H19 1_555 1_555
C28 C27 1_555 1_555
H20 C28 1_555 1_555
C36 C22 1_555 1_555
C37 C16 1_555 1_555
C38 C15 1_555 1_555
C39 C21 1_555 1_555
C40 O4 1_555 1_555
C41 H26 1_555 1_555
C44 C23 1_555 1_555
C46 C2 1_555 1_555
H29 C46 1_555 1_555
C47 C7 1_555 1_555
H30 C47 1_555 1_555
C48 C6 1_555 1_555
H31 C48 1_555 1_555
C49 C65 1_555 1_555
C51 O9 1_555 1_555
C52 C13 1_555 1_555
H33 C52 1_555 1_555
C53 C57 1_555 1_555
C57 H37 1_555 1_555
C58 C8 1_555 1_555
C59 C9 1_555 1_555
C62 C39 1_555 1_555
H39 C62 1_555 1_555
C63 N3 1_555 1_555
C64 C24 1_555 1_555
C65 C41 1_555 1_555
C66 C49 1_555 1_555
H40 C66 1_555 1_555
C68 C10 1_555 1_555
C70 O6 1_555 1_555
C71 N5 1_555 1_555
C72 C49 1_555 1_555
H42 C72 1_555 1_555
O17 Er1 1_555 1_555
Er5 O16 1_555 1_555
Er8 O13 1_555 1_555
Er11 O3 1_555 1_555
Er12 O4 1_555 1_555
O19 Er10 1_555 1_555
O20 Er10 1_555 1_555
O21 Er6 1_555 1_555
O24 Er1 1_555 1_555
O25 Er10 1_555 1_555
O26 Er6 1_555 1_555
O27 Er6 1_555 1_555
O28 Er1 1_555 1_555
Er10 O9 1_555 1_555
Er10 O16 1_555 1_555
O11 Er12 1_555 1_555
O12 C51 1_555 1_555
O15 C70 1_555 1_555
C5 C51 1_555 1_555
C7 C22 1_555 1_555
C9 C12 1_555 1_555
C13 C18 1_555 1_555
C16 C47 1_555 1_555
C18 C70 1_555 1_555
C21 C37 1_555 1_555
C27 C44 1_555 1_555
C28 C58 1_555 1_555
C38 C43 1_555 1_555
C38 C52 1_555 1_555
C40 C44 1_555 1_555
C41 C71 1_555 1_555
C46 C59 1_555 1_555
C48 C64 1_555 1_555
C53 C59 1_555 1_555
C54 C72 1_555 1_555
C57 C65 1_555 1_555
C58 C63 1_555 1_555
C61 C66 1_555 1_555
C62 C63 1_555 1_555
C64 C71 1_555 1_555
Er5 O20 1_555 1_555
Er5 O28 1_555 1_555
Er12 O28 1_555 1_555
O11_2 Er12_2 1_555 1_555
Er12_2 O28_2 1_555 1_555
Er5_2 O20_2 1_555 1_555
O2_2 C32_2 1_555 1_555
O19 C68_2 1_555 1_555
O8_2 C32_2 1_555 1_555
C2_2 H2_2 1_555 1_555
O26 C68_2 1_555 1_555
C5_2 C2_2 1_555 1_555
C6_2 H5_2 1_555 1_555
C10_2 C6_2 1_555 1_555
C26_2 C32_2 1_555 1_555
C46_2 C2_2 1_555 1_555
H29_2 C46_2 1_555 1_555
C48_2 C6_2 1_555 1_555
H31_2 C48_2 1_555 1_555
C51_2 O9_2 1_555 1_555
C55_2 C26_2 1_555 1_555
H35_2 C55_2 1_555 1_555
C68_2 C10_2 1_555 1_555
Er8 O8_2 1_555 1_555
Er11 O2_2 1_555 1_555
O8_2 Er11 1_555 1_555
O12_2 C51_2 1_555 1_555
C5_2 C51_2 1_555 1_555
O4_2 Er4 1_555 1_555
O21 C36_2 1_555 1_555
O6_2 Er4 1_555 1_555
N1_2 C25_2 1_555 1_555
N2_2 C19_2 1_555 1_555
O24 C36_2 1_555 1_555
C1_2 H1_2 1_555 1_555
C3_2 H3_2 1_555 1_555
C4_2 C3_2 1_555 1_555
H4_2 C4_2 1_555 1_555
C7_2 H6_2 1_555 1_555
C8_2 H7_2 1_555 1_555
C11_2 H9_2 1_555 1_555
N3_2 C37_2 1_555 1_555
C13_2 H11_2 1_555 1_555
C14_2 H12_2 1_555 1_555
C15_2 C1_2 1_555 1_555
H13_2 C15_2 1_555 1_555
C16_2 C3_2 1_555 1_555
N6_2 C45_2 1_555 1_555
C18_2 C1_2 1_555 1_555
C19_2 H15_2 1_555 1_555
C20_2 C11_2 1_555 1_555
C21_2 H16_2 1_555 1_555
C22_2 C4_2 1_555 1_555
C23_2 C8_2 1_555 1_555
H17_2 C23_2 1_555 1_555
C25_2 C20_2 1_555 1_555
C27_2 H19_2 1_555 1_555
C28_2 C27_2 1_555 1_555
H20_2 C28_2 1_555 1_555
C29_2 C25_2 1_555 1_555
H21_2 C29_2 1_555 1_555
C30_2 C14_2 1_555 1_555
C31_2 C20_2 1_555 1_555
C33_2 C19_2 1_555 1_555
H23_2 C33_2 1_555 1_555
C34_2 H24_2 1_555 1_555
C35_2 C30_2 1_555 1_555
H25_2 C35_2 1_555 1_555
C36_2 C22_2 1_555 1_555
C37_2 C16_2 1_555 1_555
C38_2 C15_2 1_555 1_555
C39_2 C21_2 1_555 1_555
C40_2 O4_2 1_555 1_555
C42_2 C11_2 1_555 1_555
H27_2 C42_2 1_555 1_555
C43_2 N1_2 1_555 1_555
C44_2 C23_2 1_555 1_555
C45_2 C35_2 1_555 1_555
H28_2 C45_2 1_555 1_555
C47_2 C7_2 1_555 1_555
H30_2 C47_2 1_555 1_555
C50_2 N2_2 1_555 1_555
H32_2 C50_2 1_555 1_555
C52_2 C13_2 1_555 1_555
H33_2 C52_2 1_555 1_555
C58_2 C8_2 1_555 1_555
C60_2 C29_2 1_555 1_555
C62_2 C39_2 1_555 1_555
H39_2 C62_2 1_555 1_555
C63_2 N3_2 1_555 1_555
C67_2 C50_2 1_555 1_555
H41_2 C67_2 1_555 1_555
C69_2 C33_2 1_555 1_555
C70_2 O6_2 1_555 1_555
C73_2 C14_2 1_555 1_555
H43_2 C73_2 1_555 1_555
O15_2 C70_2 1_555 1_555
C7_2 C22_2 1_555 1_555
C13_2 C18_2 1_555 1_555
C16_2 C47_2 1_555 1_555
N6_2 C73_2 1_555 1_555
C18_2 C70_2 1_555 1_555
C21_2 C37_2 1_555 1_555
C27_2 C44_2 1_555 1_555
C28_2 C58_2 1_555 1_555
C30_2 C60_2 1_555 1_555
C34_2 C43_2 1_555 1_555
C34_2 C60_2 1_555 1_555
C38_2 C43_2 1_555 1_555
C38_2 C52_2 1_555 1_555
C39_2 C69_2 1_555 1_555
C40_2 C44_2 1_555 1_555
C58_2 C63_2 1_555 1_555
C62_2 C63_2 1_555 1_555
C67_2 C69_2 1_555 1_555
O25_2 Er11 1_555 1_555
Er11 O16_2 1_555 1_555
O14_2 C56_2 1_555 1_555
C56_2 O7_2 1_555 1_555
H36_2 C56_2 1_555 1_555
Er5 O1_3 1_555 1_555
Er9 O1_3 1_555 1_555
Er12 O1_3 1_555 1_555
O3_2 C68_3 1_555 1_555
O5_2 C36_3 1_555 1_555
O6_3 Er5 1_555 1_555
O9_3 Er5 1_555 1_555
C1_3 H1_3 1_555 1_555
O25 C40_3 1_555 1_555
C2_3 H2_3 1_555 1_555
O12_3 Er12 1_555 1_555
O13_2 C68_3 1_555 1_555
C3_3 H3_3 1_555 1_555
O15_3 Er9 1_555 1_555
C4_3 C3_3 1_555 1_555
H4_3 C4_3 1_555 1_555
C5_3 C2_3 1_555 1_555
C6_3 H5_3 1_555 1_555
C7_3 H6_3 1_555 1_555
C8_3 H7_3 1_555 1_555
C9_2 H8_2 1_555 1_555
C10_3 C6_3 1_555 1_555
C12_2 C5_3 1_555 1_555
H10_2 C12_2 1_555 1_555
N3_3 C37_3 1_555 1_555
C13_3 H11_3 1_555 1_555
C15_3 C1_3 1_555 1_555
C16_3 C3_3 1_555 1_555
N5_2 C53_2 1_555 1_555
C17_2 C10_3 1_555 1_555
H14_2 C17_2 1_555 1_555
C18_3 C1_3 1_555 1_555
C21_3 H16_3 1_555 1_555
C22_3 C4_3 1_555 1_555
C23_3 C8_3 1_555 1_555
H17_3 C23_3 1_555 1_555
C24_2 C17_2 1_555 1_555
H18_2 C24_2 1_555 1_555
C27_3 H19_3 1_555 1_555
C28_3 C27_3 1_555 1_555
H20_3 C28_3 1_555 1_555
C36_3 C22_3 1_555 1_555
C37_3 C16_3 1_555 1_555
C38_3 C15_3 1_555 1_555
C39_3 C21_3 1_555 1_555
C40_3 O20 1_555 1_555
C41_2 H26_2 1_555 1_555
C44_3 C23_3 1_555 1_555
C46_3 C2_3 1_555 1_555
H29_3 C46_3 1_555 1_555
C47_3 C7_3 1_555 1_555
H30_3 C47_3 1_555 1_555
C48_3 C6_3 1_555 1_555
H31_3 C48_3 1_555 1_555
C49_2 C65_2 1_555 1_555
C51_3 O9_3 1_555 1_555
C52_3 C13_3 1_555 1_555
H33_3 C52_3 1_555 1_555
C53_2 C57_2 1_555 1_555
C57_2 H37_2 1_555 1_555
C58_3 C8_3 1_555 1_555
C59_2 C9_2 1_555 1_555
C62_3 C39_3 1_555 1_555
H39_3 C62_3 1_555 1_555
C63_3 N3_3 1_555 1_555
C64_2 C24_2 1_555 1_555
C65_2 C41_2 1_555 1_555
C66_2 C49_2 1_555 1_555
H40_2 C66_2 1_555 1_555
C68_3 C10_3 1_555 1_555
C70_3 O6_3 1_555 1_555
C71_2 N5_2 1_555 1_555
C72_2 C49_2 1_555 1_555
H42_2 C72_2 1_555 1_555
O17_3 Er5 1_555 1_555
Er9_2 O13_2 1_555 1_555
Er12_2 O3_2 1_555 1_555
O18 Er12 1_555 1_555
O19_2 Er12 1_555 1_555
O21_2 Er9 1_555 1_555
O23 Er9 1_555 1_555
O24_2 Er5 1_555 1_555
O26_2 Er9 1_555 1_555
Er12 O9_3 1_555 1_555
Er12 O23 1_555 1_555
O12_3 C51_3 1_555 1_555
O15_3 C70_3 1_555 1_555
C5_3 C51_3 1_555 1_555
C7_3 C22_3 1_555 1_555
C9_2 C12_2 1_555 1_555
C13_3 C18_3 1_555 1_555
C16_3 C47_3 1_555 1_555
C18_3 C70_3 1_555 1_555
C21_3 C37_3 1_555 1_555
C27_3 C44_3 1_555 1_555
C28_3 C58_3 1_555 1_555
C38_3 C43_3 1_555 1_555
C38_3 C52_3 1_555 1_555
C40_3 C44_3 1_555 1_555
C41_2 C71_2 1_555 1_555
C46_3 C59_2 1_555 1_555
C48_3 C64_2 1_555 1_555
C53_2 C59_2 1_555 1_555
C54_2 C72_2 1_555 1_555
C57_2 C65_2 1_555 1_555
C58_3 C63_3 1_555 1_555
C61_2 C66_2 1_555 1_555
C62_3 C63_3 1_555 1_555
C64_2 C71_2 1_555 1_555
O18 C32_3 1_555 1_555
N1_3 C25_3 1_555 1_555
O23 C32_3 1_555 1_555
C11_3 H9_3 1_555 1_555
C20_3 C11_3 1_555 1_555
C25_3 C20_3 1_555 1_555
C26_3 C32_3 1_555 1_555
C31_3 C20_3 1_555 1_555
H22_3 C31_3 1_555 1_555
C42_3 C11_3 1_555 1_555
H27_3 C42_3 1_555 1_555
C55_3 C26_3 1_555 1_555
H35_3 C55_3 1_555 1_555
Er5_2 O10_2 1_555 1_555
C26_3 C42_3 1_555 1_555
C31_3 C55_3 1_555 1_555
N2_3 C19_3 1_555 1_555
O27 C56_3 1_555 1_555
C19_3 H15_3 1_555 1_555
C33_3 C19_3 1_555 1_555
H23_3 C33_3 1_555 1_555
C34_3 H24_3 1_555 1_555
H25_3 C35_3 1_555 1_555
C50_3 N2_3 1_555 1_555
H32_3 C50_3 1_555 1_555
C67_3 C50_3 1_555 1_555
H41_3 C67_3 1_555 1_555
C69_3 C33_3 1_555 1_555
C67_3 C69_3 1_555 1_555
O27_2 C56_4 1_555 1_555
C56_4 O22_2 1_555 1_555
H36_4 C56_4 1_555 1_555
O18_2 Er12_2 1_555 1_555
O23_2 Er9_2 1_555 1_555
Er12_2 O23_2 1_555 1_555
O21_2 C36_4 1_555 1_555
O6_4 Er5_2 1_555 1_555
N1_4 C25_4 1_555 1_555
N2_4 C19_4 1_555 1_555
O24_2 C36_4 1_555 1_555
C1_4 H1_4 1_555 1_555
C3_4 H3_4 1_555 1_555
C4_4 C3_4 1_555 1_555
H4_4 C4_4 1_555 1_555
C7_4 H6_4 1_555 1_555
C8_4 H7_4 1_555 1_555
C11_4 H9_4 1_555 1_555
N3_4 C37_4 1_555 1_555
C13_4 H11_4 1_555 1_555
C14_3 H12_3 1_555 1_555
C15_4 C1_4 1_555 1_555
H13_4 C15_4 1_555 1_555
C16_4 C3_4 1_555 1_555
N6_3 C45_3 1_555 1_555
C18_4 C1_4 1_555 1_555
C19_4 H15_4 1_555 1_555
C20_4 C11_4 1_555 1_555
C21_4 H16_4 1_555 1_555
C22_4 C4_4 1_555 1_555
C23_4 C8_4 1_555 1_555
H17_4 C23_4 1_555 1_555
C25_4 C20_4 1_555 1_555
C27_4 H19_4 1_555 1_555
C28_4 C27_4 1_555 1_555
H20_4 C28_4 1_555 1_555
C29_3 C25_4 1_555 1_555
H21_3 C29_3 1_555 1_555
C30_3 C14_3 1_555 1_555
C31_4 C20_4 1_555 1_555
C33_4 C19_4 1_555 1_555
H23_4 C33_4 1_555 1_555
C34_4 H24_4 1_555 1_555
C35_4 C30_3 1_555 1_555
H25_4 C35_4 1_555 1_555
C36_4 C22_4 1_555 1_555
C37_4 C16_4 1_555 1_555
C38_4 C15_4 1_555 1_555
C39_4 C21_4 1_555 1_555
C40_4 O20_2 1_555 1_555
C42_4 C11_4 1_555 1_555
H27_4 C42_4 1_555 1_555
C43_4 N1_4 1_555 1_555
C44_4 C23_4 1_555 1_555
C45_3 C35_4 1_555 1_555
H28_4 C45_3 1_555 1_555
C47_4 C7_4 1_555 1_555
H30_4 C47_4 1_555 1_555
C50_4 N2_4 1_555 1_555
H32_4 C50_4 1_555 1_555
C52_4 C13_4 1_555 1_555
H33_4 C52_4 1_555 1_555
C58_4 C8_4 1_555 1_555
C60_3 C29_3 1_555 1_555
C62_4 C39_4 1_555 1_555
H39_4 C62_4 1_555 1_555
C63_4 N3_4 1_555 1_555
C67_4 C50_4 1_555 1_555
H41_4 C67_4 1_555 1_555
C69_4 C33_4 1_555 1_555
C70_4 O6_4 1_555 1_555
C73_3 C14_3 1_555 1_555
H43_3 C73_3 1_555 1_555
O15_4 C70_4 1_555 1_555
C7_4 C22_4 1_555 1_555
C13_4 C18_4 1_555 1_555
C16_4 C47_4 1_555 1_555
N6_3 C73_3 1_555 1_555
C18_4 C70_4 1_555 1_555
C21_4 C37_4 1_555 1_555
C27_4 C44_4 1_555 1_555
C28_4 C58_4 1_555 1_555
C30_3 C60_3 1_555 1_555
C34_4 C43_4 1_555 1_555
C34_4 C60_3 1_555 1_555
C38_4 C43_4 1_555 1_555
C38_4 C52_4 1_555 1_555
C39_4 C69_4 1_555 1_555
C40_4 C44_4 1_555 1_555
C58_4 C63_4 1_555 1_555
C62_4 C63_4 1_555 1_555
C67_4 C69_4 1_555 1_555
O18_2 C32_4 1_555 1_555
O19_2 C68_4 1_555 1_555
O23_2 C32_4 1_555 1_555
C2_4 H2_4 1_555 1_555
O26_2 C68_4 1_555 1_555
C5_4 C2_4 1_555 1_555
C6_4 H5_4 1_555 1_555
C10_4 C6_4 1_555 1_555
C26_4 C32_4 1_555 1_555
C46_4 C2_4 1_555 1_555
H29_4 C46_4 1_555 1_555
C48_4 C6_4 1_555 1_555
H31_4 C48_4 1_555 1_555
C51_4 O9_4 1_555 1_555
C55_4 C26_4 1_555 1_555
H35_4 C55_4 1_555 1_555
C68_4 C10_4 1_555 1_555
O12_4 C51_4 1_555 1_555
C5_4 C51_4 1_555 1_555
C9_3 H8_3 1_555 1_555
H10_3 C12_3 1_555 1_555
N4_2 C54_3 1_555 1_555
N5_3 C53_3 1_555 1_555
H14_3 C17_3 1_555 1_555
C24_3 C17_3 1_555 1_555
H18_3 C24_3 1_555 1_555
C41_3 H26_3 1_555 1_555
C49_3 C65_3 1_555 1_555
C53_3 C57_3 1_555 1_555
C54_3 H34_2 1_555 1_555
C57_3 H37_3 1_555 1_555
C59_3 C9_3 1_555 1_555
C61_3 N4_2 1_555 1_555
H38_2 C61_3 1_555 1_555
C64_3 C24_3 1_555 1_555
C65_3 C41_3 1_555 1_555
C66_3 C49_3 1_555 1_555
H40_3 C66_3 1_555 1_555
C71_3 N5_3 1_555 1_555
C72_3 C49_3 1_555 1_555
H42_3 C72_3 1_555 1_555
C9_3 C12_3 1_555 1_555
C41_3 C71_3 1_555 1_555
C53_3 C59_3 1_555 1_555
C54_3 C72_3 1_555 1_555
C57_3 C65_3 1_555 1_555
C61_3 C66_3 1_555 1_555
C64_3 C71_3 1_555 1_555
C14_4 H12_4 1_555 1_555
N6_4 C45_4 1_555 1_555
H21_4 C29_4 1_555 1_555
C30_4 C14_4 1_555 1_555
C60_4 C29_4 1_555 1_555
C73_4 C14_4 1_555 1_555
H43_4 C73_4 1_555 1_555
N6_4 C73_4 1_555 1_555
C30_4 C60_4 1_555 1_555
C9_4 H8_4 1_555 1_555
H10_4 C12_4 1_555 1_555
N4_4 C54_4 1_555 1_555
N5_4 C53_4 1_555 1_555
H14_4 C17_4 1_555 1_555
C24_4 C17_4 1_555 1_555
H18_4 C24_4 1_555 1_555
C41_4 H26_4 1_555 1_555
C49_4 C65_4 1_555 1_555
C53_4 C57_4 1_555 1_555
C54_4 H34_4 1_555 1_555
C57_4 H37_4 1_555 1_555
C59_4 C9_4 1_555 1_555
C61_4 N4_4 1_555 1_555
H38_4 C61_4 1_555 1_555
C64_4 C24_4 1_555 1_555
C65_4 C41_4 1_555 1_555
C66_4 C49_4 1_555 1_555
H40_4 C66_4 1_555 1_555
C71_4 N5_4 1_555 1_555
C72_4 C49_4 1_555 1_555
H42_4 C72_4 1_555 1_555
C9_4 C12_4 1_555 1_555
C41_4 C71_4 1_555 1_555
C53_4 C59_4 1_555 1_555
C54_4 C72_4 1_555 1_555
C57_4 C65_4 1_555 1_555
C61_4 C66_4 1_555 1_555
C64_4 C71_4 1_555 1_555

#END
