
###############################################################################
#
# This file contains modified crystal structure data generated from the
# MOF subset of the Cambridge Structural Database (CSD) v542 
# hosted by the Cambridge Crystallographic Data Centre (CCDC).
#
# This work is licensed under the Creative Commons
# Attribution-NonCommercial-ShareAlike 4.0 International License.
# To view a copy of this license, visit
# http://creativecommons.org/licenses/by-nc-sa/4.0/
# or send a letter to
# Creative Commons, PO Box 1866, Mountain View, CA 94042, USA.
#
# CIF created using the CSD Python API on 22 February 2021
# The structure has been converted into the P1 space group
# The structure has a 3D framework
# The original CSD entry GUJSIQ is in the orthorhombic crystal system
# The framework has been calculated to contain at least 10.0% void space
# The void calculation uses a probe of radius 1.32A, grid spacing 0.4
#
###############################################################################

data_GUJSIQ
_chemical_formula_moiety         '(C288 H192 Cu16 N96 S32)n'
_symmetry_cell_setting           triclinic
_symmetry_space_group_name_H-M   'P 1'
_symmetry_Int_Tables_number      1
_space_group_name_Hall           'P 1'
loop_
_symmetry_equiv_pos_site_id
_symmetry_equiv_pos_as_xyz
1 x,y,z
_cell_length_a                   13.5961(8)
_cell_length_b                   18.0129(11)
_cell_length_c                   33.136(2)
_cell_angle_alpha                90
_cell_angle_beta                 90
_cell_angle_gamma                90
_cell_volume                     8115.18
loop_
_atom_site_label
_atom_site_type_symbol
_atom_site_fract_x
_atom_site_fract_y
_atom_site_fract_z
H7 H 0.042960 0.276661 0.121296
C11 C 0.0295(3) 0.2180(2) 0.17251(10)
H8 H 0.091179 0.195783 0.171354
S1 S 0.45694(6) 0.16757(4) 0.32959(2)
C2 C 0.2205(3) 0.0320(2) 0.17251(10)
H2 H 0.158821 0.054217 0.171354
C3 C 0.2828(2) 0.04666(19) 0.20419(10)
H3 H 0.263503 0.078011 0.225035
C5 C 0.3742(2) 0.01405(18) 0.20445(9)
C6 C 0.4784(2) 0.09901(17) 0.29420(8)
Cu1 Cu 0.625000 0.125000 0.34638(2)
N2 N 0.56295(19) 0.06155(14) 0.30083(7)
C8 C 0.4428(2) 0.02845(17) 0.23839(8)
N3 N 0.41787(19) 0.08434(14) 0.26336(7)
C9 C 0.5858(2) 0.00587(17) 0.27590(9)
S2 S 0.79306(6) 0.08243(4) 0.32959(2)
N4 N 0.9119(2) 0.29813(15) 0.14176(7)
C10 C 0.9995(2) 0.26628(19) 0.14221(9)
C12 C 0.9672(2) 0.20334(19) 0.20419(10)
H9 H 0.986497 0.171989 0.225035
C13 C 0.8506(2) 0.28259(17) 0.17237(9)
H10 H 0.788267 0.303893 0.172217
C14 C 0.8758(2) 0.23595(18) 0.20445(9)
C15 C 0.7716(2) 0.15099(17) 0.29420(8)
C16 C 0.7236(2) 0.26341(17) 0.24379(9)
H11 H 0.707941 0.302622 0.226700
N5 N 0.68705(19) 0.18845(14) 0.30083(7)
C17 C 0.8072(2) 0.22155(17) 0.23839(8)
N6 N 0.83213(19) 0.16566(14) 0.26336(7)
C18 C 0.6642(2) 0.24413(17) 0.27590(9)
H12 H 0.606608 0.270718 0.280325
N7 N 0.5881(2) 0.04813(15) 0.39176(7)
N8 N 0.6619(2) 0.20187(15) 0.39176(7)
Cu2 Cu 0.875000 0.375000 0.09638(2)
N1 N 0.3381(2) 0.95187(15) 0.14176(7)
C1 C 0.2505(2) 0.98372(19) 0.14221(9)
H1 H 0.207040 0.973339 0.121296
C4 C 0.3994(2) 0.96741(17) 0.17237(9)
H4 H 0.461733 0.946107 0.172217
C7 C 0.5264(2) 0.98659(17) 0.24379(9)
H5 H 0.542059 0.947378 0.226700
H6 H 0.643392 0.979282 0.280325
Cu3 Cu 0.375000 0.875000 0.09638(2)
S1_2 S 0.29306(6) 0.58243(4) 0.32959(2)
N1_2 N 0.4119(2) 0.79813(15) 0.14176(7)
C1_2 C 0.4995(2) 0.76628(19) 0.14221(9)
H1_2 H 0.542960 0.776661 0.121296
C2_2 C 0.5295(3) 0.7180(2) 0.17251(10)
H2_2 H 0.591179 0.695783 0.171354
C3_2 C 0.4672(2) 0.70334(19) 0.20419(10)
H3_2 H 0.486497 0.671989 0.225035
C4_2 C 0.3506(2) 0.78259(17) 0.17237(9)
H4_2 H 0.288267 0.803893 0.172217
C5_2 C 0.3758(2) 0.73595(18) 0.20445(9)
C6_2 C 0.2716(2) 0.65099(17) 0.29420(8)
C7_2 C 0.2236(2) 0.76341(17) 0.24379(9)
H5_2 H 0.207941 0.802622 0.226700
Cu1_2 Cu 0.125000 0.625000 0.34638(2)
N2_2 N 0.18705(19) 0.68845(14) 0.30083(7)
C8_2 C 0.3072(2) 0.72155(17) 0.23839(8)
N3_2 N 0.33213(19) 0.66566(14) 0.26336(7)
C9_2 C 0.1642(2) 0.74413(17) 0.27590(9)
H6_2 H 0.106608 0.770718 0.280325
C16_2 C 0.0264(2) 0.48659(17) 0.24379(9)
H11_2 H 0.042059 0.447378 0.226700
N5_2 N 0.06295(19) 0.56155(14) 0.30083(7)
C18_2 C 0.0858(2) 0.50587(17) 0.27590(9)
H12_2 H 0.143392 0.479282 0.280325
N7_2 N 0.1619(2) 0.70187(15) 0.39176(7)
N8_2 N 0.0881(2) 0.54813(15) 0.39176(7)
S2_2 S 0.95694(6) 0.66757(4) 0.32959(2)
N4_2 N 0.8381(2) 0.45187(15) 0.14176(7)
C10_2 C 0.7505(2) 0.48372(19) 0.14221(9)
H7_2 H 0.707040 0.473339 0.121296
C11_2 C 0.7205(3) 0.5320(2) 0.17251(10)
H8_2 H 0.658821 0.554217 0.171354
C12_2 C 0.7828(2) 0.54666(19) 0.20419(10)
H9_2 H 0.763503 0.578011 0.225035
C13_2 C 0.8994(2) 0.46741(17) 0.17237(9)
H10_2 H 0.961733 0.446107 0.172217
C14_2 C 0.8742(2) 0.51405(18) 0.20445(9)
C15_2 C 0.9784(2) 0.59901(17) 0.29420(8)
C17_2 C 0.9428(2) 0.52845(17) 0.23839(8)
N6_2 N 0.91787(19) 0.58434(14) 0.26336(7)
S1_3 S 0.45694(6) 0.66757(4) 0.82959(2)
N1_3 N 0.3381(2) 0.45187(15) 0.64176(7)
C1_3 C 0.2505(2) 0.48372(19) 0.64221(9)
H1_3 H 0.207040 0.473339 0.621296
C2_3 C 0.2205(3) 0.5320(2) 0.67251(10)
H2_3 H 0.158821 0.554217 0.671354
C3_3 C 0.2828(2) 0.54666(19) 0.70419(10)
H3_3 H 0.263503 0.578011 0.725035
C4_3 C 0.3994(2) 0.46741(17) 0.67237(9)
H4_3 H 0.461733 0.446107 0.672217
C5_3 C 0.3742(2) 0.51405(18) 0.70445(9)
C6_3 C 0.4784(2) 0.59901(17) 0.79420(8)
C7_3 C 0.5264(2) 0.48659(17) 0.74379(9)
H5_3 H 0.542059 0.447378 0.726700
Cu1_3 Cu 0.625000 0.625000 0.84638(2)
N2_3 N 0.56295(19) 0.56155(14) 0.80083(7)
C8_3 C 0.4428(2) 0.52845(17) 0.73839(8)
N3_3 N 0.41787(19) 0.58434(14) 0.76336(7)
C9_3 C 0.5858(2) 0.50587(17) 0.77590(9)
H6_3 H 0.643392 0.479282 0.780325
S2_3 S 0.79306(6) 0.58243(4) 0.82959(2)
N4_3 N 0.9119(2) 0.79813(15) 0.64176(7)
C10_3 C 0.9995(2) 0.76628(19) 0.64221(9)
C12_3 C 0.9672(2) 0.70334(19) 0.70419(10)
H9_3 H 0.986497 0.671989 0.725035
C13_3 C 0.8506(2) 0.78259(17) 0.67237(9)
H10_3 H 0.788267 0.803893 0.672217
C14_3 C 0.8758(2) 0.73595(18) 0.70445(9)
C15_3 C 0.7716(2) 0.65099(17) 0.79420(8)
C16_3 C 0.7236(2) 0.76341(17) 0.74379(9)
H11_3 H 0.707941 0.802622 0.726700
N5_3 N 0.68705(19) 0.68845(14) 0.80083(7)
C17_3 C 0.8072(2) 0.72155(17) 0.73839(8)
N6_3 N 0.83213(19) 0.66566(14) 0.76336(7)
C18_3 C 0.6642(2) 0.74413(17) 0.77590(9)
H12_3 H 0.606608 0.770718 0.780325
N7_3 N 0.5881(2) 0.54813(15) 0.89176(7)
N8_3 N 0.6619(2) 0.70187(15) 0.89176(7)
Cu2_2 Cu 0.875000 0.875000 0.59638(2)
Cu3_2 Cu 0.375000 0.375000 0.59638(2)
S1_4 S 0.29306(6) 0.08243(4) 0.82959(2)
N1_4 N 0.4119(2) 0.29813(15) 0.64176(7)
C1_4 C 0.4995(2) 0.26628(19) 0.64221(9)
H1_4 H 0.542960 0.276661 0.621296
C2_4 C 0.5295(3) 0.2180(2) 0.67251(10)
H2_4 H 0.591179 0.195783 0.671354
C3_4 C 0.4672(2) 0.20334(19) 0.70419(10)
H3_4 H 0.486497 0.171989 0.725035
C4_4 C 0.3506(2) 0.28259(17) 0.67237(9)
H4_4 H 0.288267 0.303893 0.672217
C5_4 C 0.3758(2) 0.23595(18) 0.70445(9)
C6_4 C 0.2716(2) 0.15099(17) 0.79420(8)
C7_4 C 0.2236(2) 0.26341(17) 0.74379(9)
H5_4 H 0.207941 0.302622 0.726700
Cu1_4 Cu 0.125000 0.125000 0.84638(2)
N2_4 N 0.18705(19) 0.18845(14) 0.80083(7)
C8_4 C 0.3072(2) 0.22155(17) 0.73839(8)
N3_4 N 0.33213(19) 0.16566(14) 0.76336(7)
C9_4 C 0.1642(2) 0.24413(17) 0.77590(9)
H6_4 H 0.106608 0.270718 0.780325
N5_4 N 0.06295(19) 0.06155(14) 0.80083(7)
C18_4 C 0.0858(2) 0.00587(17) 0.77590(9)
N7_4 N 0.1619(2) 0.20187(15) 0.89176(7)
N8_4 N 0.0881(2) 0.04813(15) 0.89176(7)
N4_4 N 0.8381(2) 0.95187(15) 0.64176(7)
C10_4 C 0.7505(2) 0.98372(19) 0.64221(9)
H7_3 H 0.707040 0.973339 0.621296
C13_4 C 0.8994(2) 0.96741(17) 0.67237(9)
H10_4 H 0.961733 0.946107 0.672217
S2_4 S 0.04306(6) 0.91757(4) 0.57959(2)
C10_5 C 0.2495(2) 0.73372(19) 0.39221(9)
H7_4 H 0.292960 0.723339 0.371296
C11_3 C 0.2795(3) 0.7820(2) 0.42251(10)
H8_3 H 0.341179 0.804217 0.421354
C12_4 C 0.2172(2) 0.79666(19) 0.45419(10)
H9_4 H 0.236497 0.828011 0.475035
C13_5 C 0.1006(2) 0.71741(17) 0.42237(9)
H10_5 H 0.038267 0.696107 0.422217
C14_4 C 0.1258(2) 0.76405(18) 0.45445(9)
C15_4 C 0.0216(2) 0.84901(17) 0.54420(8)
C17_4 C 0.0572(2) 0.77845(17) 0.48839(8)
N6_4 N 0.08213(19) 0.83434(14) 0.51336(7)
C1_5 C 0.5005(2) 0.01628(19) 0.39221(9)
H1_5 H 0.457040 0.026661 0.371296
C4_5 C 0.6494(2) 0.03259(17) 0.42237(9)
H4_5 H 0.711733 0.053893 0.422217
C7_5 C 0.7764(2) 0.01341(17) 0.49379(9)
H5_5 H 0.792059 0.052622 0.476700
H6_5 H 0.893392 0.020718 0.530325
S1_5 S 0.70694(6) 0.83243(4) 0.57959(2)
C2_5 C 0.4705(3) 0.9680(2) 0.42251(10)
H2_5 H 0.408821 0.945783 0.421354
C3_5 C 0.5328(2) 0.95334(19) 0.45419(10)
H3_5 H 0.513503 0.921989 0.475035
C5_5 C 0.6242(2) 0.98595(18) 0.45445(9)
C6_5 C 0.7284(2) 0.90099(17) 0.54420(8)
N2_5 N 0.81295(19) 0.93845(14) 0.55083(7)
C8_5 C 0.6928(2) 0.97155(17) 0.48839(8)
N3_5 N 0.66787(19) 0.91566(14) 0.51336(7)
C9_5 C 0.8358(2) 0.99413(17) 0.52590(9)
C16_4 C 0.9736(2) 0.73659(17) 0.49379(9)
H11_4 H 0.957941 0.697378 0.476700
N5_5 N 0.93705(19) 0.81155(14) 0.55083(7)
C18_5 C 0.9142(2) 0.75587(17) 0.52590(9)
H12_4 H 0.856608 0.729282 0.530325
S1_6 S 0.54306(6) 0.41757(4) 0.57959(2)
C1_6 C 0.7495(2) 0.23372(19) 0.39221(9)
H1_6 H 0.792960 0.223339 0.371296
C2_6 C 0.7795(3) 0.2820(2) 0.42251(10)
H2_6 H 0.841179 0.304217 0.421354
C3_6 C 0.7172(2) 0.29666(19) 0.45419(10)
H3_6 H 0.736497 0.328011 0.475035
C4_6 C 0.6006(2) 0.21741(17) 0.42237(9)
H4_6 H 0.538267 0.196107 0.422217
C5_6 C 0.6258(2) 0.26405(18) 0.45445(9)
C6_6 C 0.5216(2) 0.34901(17) 0.54420(8)
C7_6 C 0.4736(2) 0.23659(17) 0.49379(9)
H5_6 H 0.457941 0.197378 0.476700
N2_6 N 0.43705(19) 0.31155(14) 0.55083(7)
C8_6 C 0.5572(2) 0.27845(17) 0.48839(8)
N3_6 N 0.58213(19) 0.33434(14) 0.51336(7)
C9_6 C 0.4142(2) 0.25587(17) 0.52590(9)
H6_6 H 0.356608 0.229282 0.530325
S2_5 S 0.20694(6) 0.33243(4) 0.57959(2)
C10_6 C 0.0005(2) 0.51628(19) 0.39221(9)
C12_5 C 0.0328(2) 0.45334(19) 0.45419(10)
H9_5 H 0.013503 0.421989 0.475035
C13_6 C 0.1494(2) 0.53259(17) 0.42237(9)
H10_6 H 0.211733 0.553893 0.422217
C14_5 C 0.1242(2) 0.48595(18) 0.45445(9)
C15_5 C 0.2284(2) 0.40099(17) 0.54420(8)
C16_5 C 0.2764(2) 0.51341(17) 0.49379(9)
H11_5 H 0.292059 0.552622 0.476700
N5_6 N 0.31295(19) 0.43845(14) 0.55083(7)
C17_5 C 0.1928(2) 0.47155(17) 0.48839(8)
N6_5 N 0.16787(19) 0.41566(14) 0.51336(7)
C18_6 C 0.3358(2) 0.49413(17) 0.52590(9)
H12_5 H 0.393392 0.520718 0.530325
C10_7 C 0.2495(2) 0.23372(19) 0.89221(9)
H7_5 H 0.292960 0.223339 0.871296
C11_4 C 0.2795(3) 0.2820(2) 0.92251(10)
H8_4 H 0.341179 0.304217 0.921354
C12_6 C 0.2172(2) 0.29666(19) 0.95419(10)
H9_6 H 0.236497 0.328011 0.975035
C13_7 C 0.1006(2) 0.21741(17) 0.92237(9)
H10_7 H 0.038267 0.196107 0.922217
C14_6 C 0.1258(2) 0.26405(18) 0.95445(9)
C17_6 C 0.0572(2) 0.27845(17) 0.98839(8)
S1_7 S 0.70694(6) 0.33243(4) 0.07959(2)
C6_7 C 0.7284(2) 0.40099(17) 0.04420(8)
N2_7 N 0.81295(19) 0.43845(14) 0.05083(7)
N3_7 N 0.66787(19) 0.41566(14) 0.01336(7)
C9_7 C 0.8358(2) 0.49413(17) 0.02590(9)
H6_7 H 0.893392 0.520718 0.030325
N5_7 N 0.93705(19) 0.31155(14) 0.05083(7)
C18_7 C 0.9142(2) 0.25587(17) 0.02590(9)
H12_6 H 0.856608 0.229282 0.030325
C1_7 C 0.5005(2) 0.51628(19) 0.89221(9)
H1_7 H 0.457040 0.526661 0.871296
C2_7 C 0.4705(3) 0.4680(2) 0.92251(10)
H2_7 H 0.408821 0.445783 0.921354
C3_7 C 0.5328(2) 0.45334(19) 0.95419(10)
H3_7 H 0.513503 0.421989 0.975035
C4_7 C 0.6494(2) 0.53259(17) 0.92237(9)
H4_7 H 0.711733 0.553893 0.922217
C5_7 C 0.6242(2) 0.48595(18) 0.95445(9)
C7_7 C 0.7764(2) 0.51341(17) 0.99379(9)
H5_7 H 0.792059 0.552622 0.976700
C8_7 C 0.6928(2) 0.47155(17) 0.98839(8)
C16_6 C 0.9736(2) 0.23659(17) 0.99379(9)
H11_6 H 0.957941 0.197378 0.976700
C10_8 C 0.0005(2) 0.01628(19) 0.89221(9)
C13_8 C 0.1494(2) 0.03259(17) 0.92237(9)
H10_8 H 0.211733 0.053893 0.922217
C16_7 C 0.2764(2) 0.01341(17) 0.99379(9)
H11_7 H 0.292059 0.052622 0.976700
S1_8 S 0.54306(6) 0.91757(4) 0.07959(2)
C6_8 C 0.5216(2) 0.84901(17) 0.04420(8)
N2_8 N 0.43705(19) 0.81155(14) 0.05083(7)
N3_8 N 0.58213(19) 0.83434(14) 0.01336(7)
C9_8 C 0.4142(2) 0.75587(17) 0.02590(9)
H6_8 H 0.356608 0.729282 0.030325
S2_6 S 0.20694(6) 0.83243(4) 0.07959(2)
C15_6 C 0.2284(2) 0.90099(17) 0.04420(8)
N5_8 N 0.31295(19) 0.93845(14) 0.05083(7)
N6_6 N 0.16787(19) 0.91566(14) 0.01336(7)
C18_8 C 0.3358(2) 0.99413(17) 0.02590(9)
C1_8 C 0.7495(2) 0.73372(19) 0.89221(9)
H1_8 H 0.792960 0.723339 0.871296
C2_8 C 0.7795(3) 0.7820(2) 0.92251(10)
H2_8 H 0.841179 0.804217 0.921354
C3_8 C 0.7172(2) 0.79666(19) 0.95419(10)
H3_8 H 0.736497 0.828011 0.975035
C4_8 C 0.6006(2) 0.71741(17) 0.92237(9)
H4_8 H 0.538267 0.696107 0.922217
C5_8 C 0.6258(2) 0.76405(18) 0.95445(9)
C7_8 C 0.4736(2) 0.73659(17) 0.99379(9)
H5_8 H 0.457941 0.697378 0.976700
C8_8 C 0.5572(2) 0.77845(17) 0.98839(8)
C12_7 C 0.0328(2) 0.95334(19) 0.95419(10)
H9_7 H 0.013503 0.921989 0.975035
C14_7 C 0.1242(2) 0.98595(18) 0.95445(9)
C17_7 C 0.1928(2) 0.97155(17) 0.98839(8)
S1_9 S 0.29306(6) 0.16757(4) 0.42041(2)
C2_9 C 0.5295(3) 0.0320(2) 0.57749(10)
H2_9 H 0.591179 0.054217 0.578646
C3_9 C 0.4672(2) 0.04666(19) 0.54581(10)
H3_9 H 0.486497 0.078011 0.524965
C5_9 C 0.3758(2) 0.01405(18) 0.54555(9)
C6_9 C 0.2716(2) 0.09901(17) 0.45580(8)
Cu1_5 Cu 0.125000 0.125000 0.40362(2)
N2_9 N 0.18705(19) 0.06155(14) 0.44917(7)
C8_9 C 0.3072(2) 0.02845(17) 0.51161(8)
N3_9 N 0.33213(19) 0.08434(14) 0.48664(7)
C9_9 C 0.1642(2) 0.00587(17) 0.47410(9)
C16_8 C 0.0264(2) 0.26341(17) 0.50621(9)
H11_8 H 0.042059 0.302622 0.523300
N5_9 N 0.06295(19) 0.18845(14) 0.44917(7)
C18_9 C 0.0858(2) 0.24413(17) 0.47410(9)
H12_7 H 0.143392 0.270718 0.469675
N7_5 N 0.1619(2) 0.04813(15) 0.35824(7)
N8_5 N 0.0881(2) 0.20187(15) 0.35824(7)
N1_5 N 0.4119(2) 0.95187(15) 0.60824(7)
C1_9 C 0.4995(2) 0.98372(19) 0.60779(9)
H1_9 H 0.542960 0.973339 0.628704
C4_9 C 0.3506(2) 0.96741(17) 0.57763(9)
H4_9 H 0.288267 0.946107 0.577783
C7_9 C 0.2236(2) 0.98659(17) 0.50621(9)
H5_9 H 0.207941 0.947378 0.523300
H6_9 H 0.106608 0.979282 0.469675
Cu3_3 Cu 0.375000 0.875000 0.65362(2)
S2_7 S 0.95694(6) 0.08243(4) 0.42041(2)
N4_5 N 0.8381(2) 0.29813(15) 0.60824(7)
C10_9 C 0.7505(2) 0.26628(19) 0.60779(9)
H7_6 H 0.707040 0.276661 0.628704
C11_5 C 0.7205(3) 0.2180(2) 0.57749(10)
H8_5 H 0.658821 0.195783 0.578646
C12_8 C 0.7828(2) 0.20334(19) 0.54581(10)
H9_8 H 0.763503 0.171989 0.524965
C13_9 C 0.8994(2) 0.28259(17) 0.57763(9)
H10_9 H 0.961733 0.303893 0.577783
C14_8 C 0.8742(2) 0.23595(18) 0.54555(9)
C15_7 C 0.9784(2) 0.15099(17) 0.45580(8)
C17_8 C 0.9428(2) 0.22155(17) 0.51161(8)
N6_7 N 0.91787(19) 0.16566(14) 0.48664(7)
Cu2_3 Cu 0.875000 0.375000 0.65362(2)
S1_10 S 0.45694(6) 0.58243(4) 0.42041(2)
N1_6 N 0.3381(2) 0.79813(15) 0.60824(7)
C1_10 C 0.2505(2) 0.76628(19) 0.60779(9)
H1_10 H 0.207040 0.776661 0.628704
C2_10 C 0.2205(3) 0.7180(2) 0.57749(10)
H2_10 H 0.158821 0.695783 0.578646
C3_10 C 0.2828(2) 0.70334(19) 0.54581(10)
H3_10 H 0.263503 0.671989 0.524965
C4_10 C 0.3994(2) 0.78259(17) 0.57763(9)
H4_10 H 0.461733 0.803893 0.577783
C5_10 C 0.3742(2) 0.73595(18) 0.54555(9)
C6_10 C 0.4784(2) 0.65099(17) 0.45580(8)
C7_10 C 0.5264(2) 0.76341(17) 0.50621(9)
H5_10 H 0.542059 0.802622 0.523300
Cu1_6 Cu 0.625000 0.625000 0.40362(2)
N2_10 N 0.56295(19) 0.68845(14) 0.44917(7)
C8_10 C 0.4428(2) 0.72155(17) 0.51161(8)
N3_10 N 0.41787(19) 0.66566(14) 0.48664(7)
C9_10 C 0.5858(2) 0.74413(17) 0.47410(9)
H6_10 H 0.643392 0.770718 0.469675
S2_8 S 0.79306(6) 0.66757(4) 0.42041(2)
N4_6 N 0.9119(2) 0.45187(15) 0.60824(7)
C10_10 C 0.9995(2) 0.48372(19) 0.60779(9)
C12_9 C 0.9672(2) 0.54666(19) 0.54581(10)
H9_9 H 0.986497 0.578011 0.524965
C13_10 C 0.8506(2) 0.46741(17) 0.57763(9)
H10_10 H 0.788267 0.446107 0.577783
C14_9 C 0.8758(2) 0.51405(18) 0.54555(9)
C15_8 C 0.7716(2) 0.59901(17) 0.45580(8)
C16_9 C 0.7236(2) 0.48659(17) 0.50621(9)
H11_9 H 0.707941 0.447378 0.523300
N5_10 N 0.68705(19) 0.56155(14) 0.44917(7)
C17_9 C 0.8072(2) 0.52845(17) 0.51161(8)
N6_8 N 0.83213(19) 0.58434(14) 0.48664(7)
C18_10 C 0.6642(2) 0.50587(17) 0.47410(9)
H12_8 H 0.606608 0.479282 0.469675
N7_6 N 0.5881(2) 0.70187(15) 0.35824(7)
N8_6 N 0.6619(2) 0.54813(15) 0.35824(7)
N1_7 N 0.4119(2) 0.45187(15) 0.10824(7)
C1_11 C 0.4995(2) 0.48372(19) 0.10779(9)
H1_11 H 0.542960 0.473339 0.128704
C2_11 C 0.5295(3) 0.5320(2) 0.07749(10)
H2_11 H 0.591179 0.554217 0.078646
C3_11 C 0.4672(2) 0.54666(19) 0.04581(10)
H3_11 H 0.486497 0.578011 0.024965
C4_11 C 0.3506(2) 0.46741(17) 0.07763(9)
H4_11 H 0.288267 0.446107 0.077783
C5_11 C 0.3758(2) 0.51405(18) 0.04555(9)
C7_11 C 0.2236(2) 0.48659(17) 0.00621(9)
H5_11 H 0.207941 0.447378 0.023300
C8_11 C 0.3072(2) 0.52845(17) 0.01161(8)
C16_10 C 0.0264(2) 0.76341(17) 0.00621(9)
H11_10 H 0.042059 0.802622 0.023300
Cu3_4 Cu 0.375000 0.375000 0.15362(2)
S1_11 S 0.29306(6) 0.66757(4) 0.92041(2)
C6_11 C 0.2716(2) 0.59901(17) 0.95580(8)
Cu1_7 Cu 0.125000 0.625000 0.90362(2)
N2_11 N 0.18705(19) 0.56155(14) 0.94917(7)
N3_11 N 0.33213(19) 0.58434(14) 0.98664(7)
C9_11 C 0.1642(2) 0.50587(17) 0.97410(9)
H6_11 H 0.106608 0.479282 0.969675
N5_11 N 0.06295(19) 0.68845(14) 0.94917(7)
C18_11 C 0.0858(2) 0.74413(17) 0.97410(9)
H12_9 H 0.143392 0.770718 0.969675
N7_7 N 0.1619(2) 0.54813(15) 0.85824(7)
N8_7 N 0.0881(2) 0.70187(15) 0.85824(7)
N4_7 N 0.8381(2) 0.79813(15) 0.10824(7)
C10_11 C 0.7505(2) 0.76628(19) 0.10779(9)
H7_7 H 0.707040 0.776661 0.128704
C11_6 C 0.7205(3) 0.7180(2) 0.07749(10)
H8_6 H 0.658821 0.695783 0.078646
C12_10 C 0.7828(2) 0.70334(19) 0.04581(10)
H9_10 H 0.763503 0.671989 0.024965
C13_11 C 0.8994(2) 0.78259(17) 0.07763(9)
H10_11 H 0.961733 0.803893 0.077783
C14_10 C 0.8742(2) 0.73595(18) 0.04555(9)
C17_10 C 0.9428(2) 0.72155(17) 0.01161(8)
Cu2_4 Cu 0.875000 0.875000 0.15362(2)
N1_8 N 0.3381(2) 0.29813(15) 0.10824(7)
C1_12 C 0.2505(2) 0.26628(19) 0.10779(9)
H1_12 H 0.207040 0.276661 0.128704
C2_12 C 0.2205(3) 0.2180(2) 0.07749(10)
H2_12 H 0.158821 0.195783 0.078646
C3_12 C 0.2828(2) 0.20334(19) 0.04581(10)
H3_12 H 0.263503 0.171989 0.024965
C4_12 C 0.3994(2) 0.28259(17) 0.07763(9)
H4_12 H 0.461733 0.303893 0.077783
C5_12 C 0.3742(2) 0.23595(18) 0.04555(9)
C7_12 C 0.5264(2) 0.26341(17) 0.00621(9)
H5_12 H 0.542059 0.302622 0.023300
C8_12 C 0.4428(2) 0.22155(17) 0.01161(8)
C12_11 C 0.9672(2) 0.04666(19) 0.04581(10)
H9_11 H 0.986497 0.078011 0.024965
C14_11 C 0.8758(2) 0.01405(18) 0.04555(9)
C17_11 C 0.8072(2) 0.02845(17) 0.01161(8)
S1_12 S 0.45694(6) 0.08243(4) 0.92041(2)
C6_12 C 0.4784(2) 0.15099(17) 0.95580(8)
Cu1_8 Cu 0.625000 0.125000 0.90362(2)
N2_12 N 0.56295(19) 0.18845(14) 0.94917(7)
N3_12 N 0.41787(19) 0.16566(14) 0.98664(7)
C9_12 C 0.5858(2) 0.24413(17) 0.97410(9)
H6_12 H 0.643392 0.270718 0.969675
S2_9 S 0.79306(6) 0.16757(4) 0.92041(2)
C15_9 C 0.7716(2) 0.09901(17) 0.95580(8)
N5_12 N 0.68705(19) 0.06155(14) 0.94917(7)
N6_9 N 0.83213(19) 0.08434(14) 0.98664(7)
C18_12 C 0.6642(2) 0.00587(17) 0.97410(9)
N7_8 N 0.5881(2) 0.20187(15) 0.85824(7)
N8_8 N 0.6619(2) 0.04813(15) 0.85824(7)
N4_8 N 0.9119(2) 0.95187(15) 0.10824(7)
C10_12 C 0.9995(2) 0.98372(19) 0.10779(9)
C13_12 C 0.8506(2) 0.96741(17) 0.07763(9)
H10_12 H 0.788267 0.946107 0.077783
C16_11 C 0.7236(2) 0.98659(17) 0.00621(9)
H11_11 H 0.707941 0.947378 0.023300
C1_13 C 0.7495(2) 0.01628(19) 0.85779(9)
H1_13 H 0.792960 0.026661 0.878704
C4_13 C 0.6006(2) 0.03259(17) 0.82763(9)
H4_13 H 0.538267 0.053893 0.827783
C7_13 C 0.4736(2) 0.01341(17) 0.75621(9)
H5_13 H 0.457941 0.052622 0.773300
H6_13 H 0.356608 0.020718 0.719675
S1_13 S 0.54306(6) 0.83243(4) 0.67041(2)
C2_13 C 0.7795(3) 0.9680(2) 0.82749(10)
H2_13 H 0.841179 0.945783 0.828646
C3_13 C 0.7172(2) 0.95334(19) 0.79581(10)
H3_13 H 0.736497 0.921989 0.774965
C5_13 C 0.6258(2) 0.98595(18) 0.79555(9)
C6_13 C 0.5216(2) 0.90099(17) 0.70580(8)
N2_13 N 0.43705(19) 0.93845(14) 0.69917(7)
C8_13 C 0.5572(2) 0.97155(17) 0.76161(8)
N3_13 N 0.58213(19) 0.91566(14) 0.73664(7)
C9_13 C 0.4142(2) 0.99413(17) 0.72410(9)
S2_10 S 0.20694(6) 0.91757(4) 0.67041(2)
C10_13 C 0.0005(2) 0.73372(19) 0.85779(9)
C12_12 C 0.0328(2) 0.79666(19) 0.79581(10)
H9_12 H 0.013503 0.828011 0.774965
C13_13 C 0.1494(2) 0.71741(17) 0.82763(9)
H10_13 H 0.211733 0.696107 0.827783
C14_12 C 0.1242(2) 0.76405(18) 0.79555(9)
C15_10 C 0.2284(2) 0.84901(17) 0.70580(8)
C16_12 C 0.2764(2) 0.73659(17) 0.75621(9)
H11_12 H 0.292059 0.697378 0.773300
N5_13 N 0.31295(19) 0.81155(14) 0.69917(7)
C17_12 C 0.1928(2) 0.77845(17) 0.76161(8)
N6_10 N 0.16787(19) 0.83434(14) 0.73664(7)
C18_13 C 0.3358(2) 0.75587(17) 0.72410(9)
H12_10 H 0.393392 0.729282 0.719675
S2_11 S 0.04306(6) 0.33243(4) 0.67041(2)
C10_14 C 0.2495(2) 0.51628(19) 0.85779(9)
H7_8 H 0.292960 0.526661 0.878704
C11_7 C 0.2795(3) 0.4680(2) 0.82749(10)
H8_7 H 0.341179 0.445783 0.828646
C12_13 C 0.2172(2) 0.45334(19) 0.79581(10)
H9_13 H 0.236497 0.421989 0.774965
C13_14 C 0.1006(2) 0.53259(17) 0.82763(9)
H10_14 H 0.038267 0.553893 0.827783
C14_13 C 0.1258(2) 0.48595(18) 0.79555(9)
C15_11 C 0.0216(2) 0.40099(17) 0.70580(8)
C17_13 C 0.0572(2) 0.47155(17) 0.76161(8)
N6_11 N 0.08213(19) 0.41566(14) 0.73664(7)
S1_14 S 0.70694(6) 0.41757(4) 0.67041(2)
C1_14 C 0.5005(2) 0.23372(19) 0.85779(9)
H1_14 H 0.457040 0.223339 0.878704
C2_14 C 0.4705(3) 0.2820(2) 0.82749(10)
H2_14 H 0.408821 0.304217 0.828646
C3_14 C 0.5328(2) 0.29666(19) 0.79581(10)
H3_14 H 0.513503 0.328011 0.774965
C4_14 C 0.6494(2) 0.21741(17) 0.82763(9)
H4_14 H 0.711733 0.196107 0.827783
C5_14 C 0.6242(2) 0.26405(18) 0.79555(9)
C6_14 C 0.7284(2) 0.34901(17) 0.70580(8)
C7_14 C 0.7764(2) 0.23659(17) 0.75621(9)
H5_14 H 0.792059 0.197378 0.773300
N2_14 N 0.81295(19) 0.31155(14) 0.69917(7)
C8_14 C 0.6928(2) 0.27845(17) 0.76161(8)
N3_14 N 0.66787(19) 0.33434(14) 0.73664(7)
C9_14 C 0.8358(2) 0.25587(17) 0.72410(9)
H6_14 H 0.893392 0.229282 0.719675
C16_13 C 0.9736(2) 0.51341(17) 0.75621(9)
H11_13 H 0.957941 0.552622 0.773300
N5_14 N 0.93705(19) 0.43845(14) 0.69917(7)
C18_14 C 0.9142(2) 0.49413(17) 0.72410(9)
H12_11 H 0.856608 0.520718 0.719675
S1_15 S 0.54306(6) 0.33243(4) 0.17041(2)
C1_15 C 0.7495(2) 0.51628(19) 0.35779(9)
H1_15 H 0.792960 0.526661 0.378704
C2_15 C 0.7795(3) 0.4680(2) 0.32749(10)
H2_15 H 0.841179 0.445783 0.328646
C3_15 C 0.7172(2) 0.45334(19) 0.29581(10)
H3_15 H 0.736497 0.421989 0.274965
C4_15 C 0.6006(2) 0.53259(17) 0.32763(9)
H4_15 H 0.538267 0.553893 0.327783
C5_15 C 0.6258(2) 0.48595(18) 0.29555(9)
C6_15 C 0.5216(2) 0.40099(17) 0.20580(8)
C7_15 C 0.4736(2) 0.51341(17) 0.25621(9)
H5_15 H 0.457941 0.552622 0.273300
N2_15 N 0.43705(19) 0.43845(14) 0.19917(7)
C8_15 C 0.5572(2) 0.47155(17) 0.26161(8)
N3_15 N 0.58213(19) 0.41566(14) 0.23664(7)
C9_15 C 0.4142(2) 0.49413(17) 0.22410(9)
H6_15 H 0.356608 0.520718 0.219675
S2_12 S 0.20694(6) 0.41757(4) 0.17041(2)
C10_15 C 0.0005(2) 0.23372(19) 0.35779(9)
C12_14 C 0.0328(2) 0.29666(19) 0.29581(10)
H9_14 H 0.013503 0.328011 0.274965
C13_15 C 0.1494(2) 0.21741(17) 0.32763(9)
H10_15 H 0.211733 0.196107 0.327783
C14_14 C 0.1242(2) 0.26405(18) 0.29555(9)
C15_12 C 0.2284(2) 0.34901(17) 0.20580(8)
C16_14 C 0.2764(2) 0.23659(17) 0.25621(9)
H11_14 H 0.292059 0.197378 0.273300
N5_15 N 0.31295(19) 0.31155(14) 0.19917(7)
C17_14 C 0.1928(2) 0.27845(17) 0.26161(8)
N6_12 N 0.16787(19) 0.33434(14) 0.23664(7)
C18_15 C 0.3358(2) 0.25587(17) 0.22410(9)
H12_12 H 0.393392 0.229282 0.219675
C10_16 C 0.2495(2) 0.01628(19) 0.35779(9)
H7_9 H 0.292960 0.026661 0.378704
C13_16 C 0.1006(2) 0.03259(17) 0.32763(9)
H10_16 H 0.038267 0.053893 0.327783
S1_16 S 0.70694(6) 0.91757(4) 0.17041(2)
C1_16 C 0.5005(2) 0.73372(19) 0.35779(9)
H1_16 H 0.457040 0.723339 0.378704
C2_16 C 0.4705(3) 0.7820(2) 0.32749(10)
H2_16 H 0.408821 0.804217 0.328646
C3_16 C 0.5328(2) 0.79666(19) 0.29581(10)
H3_16 H 0.513503 0.828011 0.274965
C4_16 C 0.6494(2) 0.71741(17) 0.32763(9)
H4_16 H 0.711733 0.696107 0.327783
C5_16 C 0.6242(2) 0.76405(18) 0.29555(9)
C6_16 C 0.7284(2) 0.84901(17) 0.20580(8)
C7_16 C 0.7764(2) 0.73659(17) 0.25621(9)
H5_16 H 0.792059 0.697378 0.273300
N2_16 N 0.81295(19) 0.81155(14) 0.19917(7)
C8_16 C 0.6928(2) 0.77845(17) 0.26161(8)
N3_16 N 0.66787(19) 0.83434(14) 0.23664(7)
C9_16 C 0.8358(2) 0.75587(17) 0.22410(9)
H6_16 H 0.893392 0.729282 0.219675
N5_16 N 0.93705(19) 0.93845(14) 0.19917(7)
C18_16 C 0.9142(2) 0.99413(17) 0.22410(9)
H7_10 H 0.042960 0.473339 0.628704
C11_8 C 0.0295(3) 0.5320(2) 0.57749(10)
H8_8 H 0.091179 0.554217 0.578646
H7_11 H 0.042960 0.776661 0.621296
C11_9 C 0.0295(3) 0.7180(2) 0.67251(10)
H8_9 H 0.091179 0.695783 0.671354
C16_15 C 0.0264(2) 0.98659(17) 0.74379(9)
H11_15 H 0.042059 0.947378 0.726700
H12_13 H 0.143392 0.979282 0.780325
S2_13 S 0.95694(6) 0.16757(4) 0.82959(2)
C11_10 C 0.7205(3) 0.0320(2) 0.67251(10)
H8_10 H 0.658821 0.054217 0.671354
C12_15 C 0.7828(2) 0.04666(19) 0.70419(10)
H9_15 H 0.763503 0.078011 0.725035
C14_15 C 0.8742(2) 0.01405(18) 0.70445(9)
C15_13 C 0.9784(2) 0.09901(17) 0.79420(8)
C17_15 C 0.9428(2) 0.02845(17) 0.73839(8)
N6_13 N 0.91787(19) 0.08434(14) 0.76336(7)
S2_14 S 0.95694(6) 0.58243(4) 0.92041(2)
C15_14 C 0.9784(2) 0.65099(17) 0.95580(8)
N6_14 N 0.91787(19) 0.66566(14) 0.98664(7)
C11_11 C 0.0295(3) 0.0320(2) 0.07749(10)
H8_11 H 0.091179 0.054217 0.078646
H7_12 H 0.042960 0.973339 0.128704
H12_14 H 0.606608 0.979282 0.969675
H7_13 H 0.957040 0.723339 0.878704
C11_12 C 0.9705(3) 0.7820(2) 0.82749(10)
H8_12 H 0.908821 0.804217 0.828646
H7_14 H 0.957040 0.526661 0.371296
C11_13 C 0.9705(3) 0.4680(2) 0.42251(10)
H8_13 H 0.908821 0.445783 0.421354
H7_15 H 0.957040 0.223339 0.378704
C11_14 C 0.9705(3) 0.2820(2) 0.32749(10)
H8_14 H 0.908821 0.304217 0.328646
S2_15 S 0.04306(6) 0.83243(4) 0.17041(2)
C11_15 C 0.2795(3) 0.9680(2) 0.32749(10)
H8_15 H 0.341179 0.945783 0.328646
C12_16 C 0.2172(2) 0.95334(19) 0.29581(10)
H9_16 H 0.236497 0.921989 0.274965
C14_16 C 0.1258(2) 0.98595(18) 0.29555(9)
C15_15 C 0.0216(2) 0.90099(17) 0.20580(8)
C17_16 C 0.0572(2) 0.97155(17) 0.26161(8)
N6_15 N 0.08213(19) 0.91566(14) 0.23664(7)
C16_16 C 0.9736(2) 0.01341(17) 0.25621(9)
H11_16 H 0.957941 0.052622 0.273300
H12_15 H 0.856608 0.020718 0.219675
S2_16 S 0.04306(6) 0.41757(4) 0.07959(2)
C15_16 C 0.0216(2) 0.34901(17) 0.04420(8)
N6_16 N 0.08213(19) 0.33434(14) 0.01336(7)
H12_16 H 0.393392 0.020718 0.030325
H7_16 H 0.957040 0.026661 0.871296
C11_16 C 0.9705(3) 0.9680(2) 0.92251(10)
H8_16 H 0.908821 0.945783 0.921354
loop_
_geom_bond_atom_site_label_1
_geom_bond_atom_site_label_2
_geom_bond_site_symmetry_1
_geom_bond_site_symmetry_2
H8 C11 1_555 1_555
S1 C6 1_555 1_555
H2 C2 1_555 1_555
C3 C2 1_555 1_555
H3 C3 1_555 1_555
C5 C3 1_555 1_555
C6 N2 1_555 1_555
Cu1 S1 1_555 1_555
N2 Cu1 1_555 1_555
C8 C5 1_555 1_555
N3 C6 1_555 1_555
S2 Cu1 1_555 1_555
N4 C10 1_555 1_555
H9 C12 1_555 1_555
C13 N4 1_555 1_555
H10 C13 1_555 1_555
C14 C12 1_555 1_555
C15 S2 1_555 1_555
C16 H11 1_555 1_555
N5 Cu1 1_555 1_555
C17 C14 1_555 1_555
N6 C15 1_555 1_555
C18 C16 1_555 1_555
H12 C18 1_555 1_555
N7 Cu1 1_555 1_555
N8 Cu1 1_555 1_555
Cu2 N4 1_555 1_555
N2 C9 1_555 1_555
C8 N3 1_555 1_555
C13 C14 1_555 1_555
C15 N5 1_555 1_555
C16 C17 1_555 1_555
N5 C18 1_555 1_555
C17 N6 1_555 1_555
N1 C1 1_555 1_555
C1 H1 1_555 1_555
C4 N1 1_555 1_555
H4 C4 1_555 1_555
C7 H5 1_555 1_555
Cu3 N1 1_555 1_555
S1_2 C6_2 1_555 1_555
N1_2 C1_2 1_555 1_555
C1_2 H1_2 1_555 1_555
C2_2 C1_2 1_555 1_555
H2_2 C2_2 1_555 1_555
C3_2 C2_2 1_555 1_555
H3_2 C3_2 1_555 1_555
C4_2 N1_2 1_555 1_555
H4_2 C4_2 1_555 1_555
C5_2 C3_2 1_555 1_555
C6_2 N2_2 1_555 1_555
C7_2 H5_2 1_555 1_555
Cu1_2 S1_2 1_555 1_555
N2_2 Cu1_2 1_555 1_555
C8_2 C5_2 1_555 1_555
N3_2 C6_2 1_555 1_555
C9_2 C7_2 1_555 1_555
H6_2 C9_2 1_555 1_555
C16_2 H11_2 1_555 1_555
N5_2 Cu1_2 1_555 1_555
C18_2 C16_2 1_555 1_555
H12_2 C18_2 1_555 1_555
N7_2 Cu1_2 1_555 1_555
N8_2 Cu1_2 1_555 1_555
Cu3 N1_2 1_555 1_555
C4_2 C5_2 1_555 1_555
C7_2 C8_2 1_555 1_555
N2_2 C9_2 1_555 1_555
C8_2 N3_2 1_555 1_555
N5_2 C18_2 1_555 1_555
N4_2 C10_2 1_555 1_555
C10_2 H7_2 1_555 1_555
C11_2 C10_2 1_555 1_555
H8_2 C11_2 1_555 1_555
C12_2 C11_2 1_555 1_555
H9_2 C12_2 1_555 1_555
C13_2 N4_2 1_555 1_555
H10_2 C13_2 1_555 1_555
C14_2 C12_2 1_555 1_555
C15_2 S2_2 1_555 1_555
C17_2 C14_2 1_555 1_555
N6_2 C15_2 1_555 1_555
Cu2 N4_2 1_555 1_555
C13_2 C14_2 1_555 1_555
C17_2 N6_2 1_555 1_555
S1_3 C6_3 1_555 1_555
N1_3 C1_3 1_555 1_555
C1_3 H1_3 1_555 1_555
C2_3 C1_3 1_555 1_555
H2_3 C2_3 1_555 1_555
C3_3 C2_3 1_555 1_555
H3_3 C3_3 1_555 1_555
C4_3 N1_3 1_555 1_555
H4_3 C4_3 1_555 1_555
C5_3 C3_3 1_555 1_555
C6_3 N2_3 1_555 1_555
C7_3 H5_3 1_555 1_555
Cu1_3 S1_3 1_555 1_555
N2_3 Cu1_3 1_555 1_555
C8_3 C5_3 1_555 1_555
N3_3 C6_3 1_555 1_555
C9_3 C7_3 1_555 1_555
H6_3 C9_3 1_555 1_555
S2_3 Cu1_3 1_555 1_555
N4_3 C10_3 1_555 1_555
H9_3 C12_3 1_555 1_555
C13_3 N4_3 1_555 1_555
H10_3 C13_3 1_555 1_555
C14_3 C12_3 1_555 1_555
C15_3 S2_3 1_555 1_555
C16_3 H11_3 1_555 1_555
N5_3 Cu1_3 1_555 1_555
C17_3 C14_3 1_555 1_555
N6_3 C15_3 1_555 1_555
C18_3 C16_3 1_555 1_555
H12_3 C18_3 1_555 1_555
N7_3 Cu1_3 1_555 1_555
N8_3 Cu1_3 1_555 1_555
Cu2_2 N4_3 1_555 1_555
Cu3_2 N1_3 1_555 1_555
C4_3 C5_3 1_555 1_555
C7_3 C8_3 1_555 1_555
N2_3 C9_3 1_555 1_555
C8_3 N3_3 1_555 1_555
C13_3 C14_3 1_555 1_555
C15_3 N5_3 1_555 1_555
C16_3 C17_3 1_555 1_555
N5_3 C18_3 1_555 1_555
C17_3 N6_3 1_555 1_555
S1_4 C6_4 1_555 1_555
N1_4 C1_4 1_555 1_555
C1_4 H1_4 1_555 1_555
C2_4 C1_4 1_555 1_555
H2_4 C2_4 1_555 1_555
C3_4 C2_4 1_555 1_555
H3_4 C3_4 1_555 1_555
C4_4 N1_4 1_555 1_555
H4_4 C4_4 1_555 1_555
C5_4 C3_4 1_555 1_555
C6_4 N2_4 1_555 1_555
C7_4 H5_4 1_555 1_555
Cu1_4 S1_4 1_555 1_555
N2_4 Cu1_4 1_555 1_555
C8_4 C5_4 1_555 1_555
N3_4 C6_4 1_555 1_555
C9_4 C7_4 1_555 1_555
H6_4 C9_4 1_555 1_555
N5_4 Cu1_4 1_555 1_555
N7_4 Cu1_4 1_555 1_555
N8_4 Cu1_4 1_555 1_555
Cu3_2 N1_4 1_555 1_555
C4_4 C5_4 1_555 1_555
C7_4 C8_4 1_555 1_555
N2_4 C9_4 1_555 1_555
C8_4 N3_4 1_555 1_555
N5_4 C18_4 1_555 1_555
N4_4 C10_4 1_555 1_555
C10_4 H7_3 1_555 1_555
C13_4 N4_4 1_555 1_555
H10_4 C13_4 1_555 1_555
Cu2_2 N4_4 1_555 1_555
N7_2 C10_5 1_555 1_555
C10_5 H7_4 1_555 1_555
C11_3 C10_5 1_555 1_555
H8_3 C11_3 1_555 1_555
C12_4 C11_3 1_555 1_555
H9_4 C12_4 1_555 1_555
C13_5 N7_2 1_555 1_555
H10_5 C13_5 1_555 1_555
C14_4 C12_4 1_555 1_555
C15_4 S2_4 1_555 1_555
C17_4 C14_4 1_555 1_555
N6_4 C15_4 1_555 1_555
C13_5 C14_4 1_555 1_555
C17_4 N6_4 1_555 1_555
N7 C1_5 1_555 1_555
C1_5 H1_5 1_555 1_555
C4_5 N7 1_555 1_555
H4_5 C4_5 1_555 1_555
C7_5 H5_5 1_555 1_555
S1_5 C6_5 1_555 1_555
H2_5 C2_5 1_555 1_555
C3_5 C2_5 1_555 1_555
H3_5 C3_5 1_555 1_555
C5_5 C3_5 1_555 1_555
C6_5 N2_5 1_555 1_555
Cu2_2 S1_5 1_555 1_555
N2_5 Cu2_2 1_555 1_555
C8_5 C5_5 1_555 1_555
N3_5 C6_5 1_555 1_555
C16_4 H11_4 1_555 1_555
N5_5 Cu2_2 1_555 1_555
C18_5 C16_4 1_555 1_555
H12_4 C18_5 1_555 1_555
N2_5 C9_5 1_555 1_555
C8_5 N3_5 1_555 1_555
N5_5 C18_5 1_555 1_555
S1_6 C6_6 1_555 1_555
N8 C1_6 1_555 1_555
C1_6 H1_6 1_555 1_555
C2_6 C1_6 1_555 1_555
H2_6 C2_6 1_555 1_555
C3_6 C2_6 1_555 1_555
H3_6 C3_6 1_555 1_555
C4_6 N8 1_555 1_555
H4_6 C4_6 1_555 1_555
C5_6 C3_6 1_555 1_555
C6_6 N2_6 1_555 1_555
C7_6 H5_6 1_555 1_555
Cu3_2 S1_6 1_555 1_555
N2_6 Cu3_2 1_555 1_555
C8_6 C5_6 1_555 1_555
N3_6 C6_6 1_555 1_555
C9_6 C7_6 1_555 1_555
H6_6 C9_6 1_555 1_555
S2_5 Cu3_2 1_555 1_555
N8_2 C10_6 1_555 1_555
H9_5 C12_5 1_555 1_555
C13_6 N8_2 1_555 1_555
H10_6 C13_6 1_555 1_555
C14_5 C12_5 1_555 1_555
C15_5 S2_5 1_555 1_555
C16_5 H11_5 1_555 1_555
N5_6 Cu3_2 1_555 1_555
C17_5 C14_5 1_555 1_555
N6_5 C15_5 1_555 1_555
C18_6 C16_5 1_555 1_555
H12_5 C18_6 1_555 1_555
C4_6 C5_6 1_555 1_555
C7_6 C8_6 1_555 1_555
N2_6 C9_6 1_555 1_555
C8_6 N3_6 1_555 1_555
C13_6 C14_5 1_555 1_555
C15_5 N5_6 1_555 1_555
C16_5 C17_5 1_555 1_555
N5_6 C18_6 1_555 1_555
C17_5 N6_5 1_555 1_555
N7_4 C10_7 1_555 1_555
C10_7 H7_5 1_555 1_555
C11_4 C10_7 1_555 1_555
H8_4 C11_4 1_555 1_555
C12_6 C11_4 1_555 1_555
H9_6 C12_6 1_555 1_555
C13_7 N7_4 1_555 1_555
H10_7 C13_7 1_555 1_555
C14_6 C12_6 1_555 1_555
C17_6 C14_6 1_555 1_555
C13_7 C14_6 1_555 1_555
S1_7 C6_7 1_555 1_555
C6_7 N2_7 1_555 1_555
Cu2 S1_7 1_555 1_555
N2_7 Cu2 1_555 1_555
N3_7 C6_7 1_555 1_555
H6_7 C9_7 1_555 1_555
N5_7 Cu2 1_555 1_555
H12_6 C18_7 1_555 1_555
N2_7 C9_7 1_555 1_555
N5_7 C18_7 1_555 1_555
N7_3 C1_7 1_555 1_555
C1_7 H1_7 1_555 1_555
C2_7 C1_7 1_555 1_555
H2_7 C2_7 1_555 1_555
C3_7 C2_7 1_555 1_555
H3_7 C3_7 1_555 1_555
C4_7 N7_3 1_555 1_555
H4_7 C4_7 1_555 1_555
C5_7 C3_7 1_555 1_555
C7_7 H5_7 1_555 1_555
C8_7 C5_7 1_555 1_555
C16_6 H11_6 1_555 1_555
C4_7 C5_7 1_555 1_555
C7_7 C8_7 1_555 1_555
N8_4 C10_8 1_555 1_555
C13_8 N8_4 1_555 1_555
H10_8 C13_8 1_555 1_555
C16_7 H11_7 1_555 1_555
S1_8 C6_8 1_555 1_555
C6_8 N2_8 1_555 1_555
Cu3 S1_8 1_555 1_555
N2_8 Cu3 1_555 1_555
N3_8 C6_8 1_555 1_555
H6_8 C9_8 1_555 1_555
S2_6 Cu3 1_555 1_555
C15_6 S2_6 1_555 1_555
N5_8 Cu3 1_555 1_555
N6_6 C15_6 1_555 1_555
N2_8 C9_8 1_555 1_555
C15_6 N5_8 1_555 1_555
N5_8 C18_8 1_555 1_555
N8_3 C1_8 1_555 1_555
C1_8 H1_8 1_555 1_555
C2_8 C1_8 1_555 1_555
H2_8 C2_8 1_555 1_555
C3_8 C2_8 1_555 1_555
H3_8 C3_8 1_555 1_555
C4_8 N8_3 1_555 1_555
H4_8 C4_8 1_555 1_555
C5_8 C3_8 1_555 1_555
C7_8 H5_8 1_555 1_555
C8_8 C5_8 1_555 1_555
H9_7 C12_7 1_555 1_555
C14_7 C12_7 1_555 1_555
C17_7 C14_7 1_555 1_555
C4_8 C5_8 1_555 1_555
C7_8 C8_8 1_555 1_555
S1_9 C6_9 1_555 1_555
H2_9 C2_9 1_555 1_555
C3_9 C2_9 1_555 1_555
H3_9 C3_9 1_555 1_555
C5_9 C3_9 1_555 1_555
C6_9 N2_9 1_555 1_555
Cu1_5 S1_9 1_555 1_555
N2_9 Cu1_5 1_555 1_555
C8_9 C5_9 1_555 1_555
N3_9 C6_9 1_555 1_555
C16_8 H11_8 1_555 1_555
N5_9 Cu1_5 1_555 1_555
C18_9 C16_8 1_555 1_555
H12_7 C18_9 1_555 1_555
N7_5 Cu1_5 1_555 1_555
N8_5 Cu1_5 1_555 1_555
N2_9 C9_9 1_555 1_555
C8_9 N3_9 1_555 1_555
N5_9 C18_9 1_555 1_555
N1_5 C1_9 1_555 1_555
C1_9 H1_9 1_555 1_555
C4_9 N1_5 1_555 1_555
H4_9 C4_9 1_555 1_555
C7_9 H5_9 1_555 1_555
Cu3_3 N1_5 1_555 1_555
N4_5 C10_9 1_555 1_555
C10_9 H7_6 1_555 1_555
C11_5 C10_9 1_555 1_555
H8_5 C11_5 1_555 1_555
C12_8 C11_5 1_555 1_555
H9_8 C12_8 1_555 1_555
C13_9 N4_5 1_555 1_555
H10_9 C13_9 1_555 1_555
C14_8 C12_8 1_555 1_555
C15_7 S2_7 1_555 1_555
C17_8 C14_8 1_555 1_555
N6_7 C15_7 1_555 1_555
Cu2_3 N4_5 1_555 1_555
C13_9 C14_8 1_555 1_555
C17_8 N6_7 1_555 1_555
S1_10 C6_10 1_555 1_555
N1_6 C1_10 1_555 1_555
C1_10 H1_10 1_555 1_555
C2_10 C1_10 1_555 1_555
H2_10 C2_10 1_555 1_555
C3_10 C2_10 1_555 1_555
H3_10 C3_10 1_555 1_555
C4_10 N1_6 1_555 1_555
H4_10 C4_10 1_555 1_555
C5_10 C3_10 1_555 1_555
C6_10 N2_10 1_555 1_555
C7_10 H5_10 1_555 1_555
Cu1_6 S1_10 1_555 1_555
N2_10 Cu1_6 1_555 1_555
C8_10 C5_10 1_555 1_555
N3_10 C6_10 1_555 1_555
C9_10 C7_10 1_555 1_555
H6_10 C9_10 1_555 1_555
S2_8 Cu1_6 1_555 1_555
N4_6 C10_10 1_555 1_555
H9_9 C12_9 1_555 1_555
C13_10 N4_6 1_555 1_555
H10_10 C13_10 1_555 1_555
C14_9 C12_9 1_555 1_555
C15_8 S2_8 1_555 1_555
C16_9 H11_9 1_555 1_555
N5_10 Cu1_6 1_555 1_555
C17_9 C14_9 1_555 1_555
N6_8 C15_8 1_555 1_555
C18_10 C16_9 1_555 1_555
H12_8 C18_10 1_555 1_555
N7_6 Cu1_6 1_555 1_555
N8_6 Cu1_6 1_555 1_555
Cu2_3 N4_6 1_555 1_555
Cu3_3 N1_6 1_555 1_555
C4_10 C5_10 1_555 1_555
C7_10 C8_10 1_555 1_555
N2_10 C9_10 1_555 1_555
C8_10 N3_10 1_555 1_555
C13_10 C14_9 1_555 1_555
C15_8 N5_10 1_555 1_555
C16_9 C17_9 1_555 1_555
N5_10 C18_10 1_555 1_555
C17_9 N6_8 1_555 1_555
N1_7 C1_11 1_555 1_555
C1_11 H1_11 1_555 1_555
C2_11 C1_11 1_555 1_555
H2_11 C2_11 1_555 1_555
C3_11 C2_11 1_555 1_555
H3_11 C3_11 1_555 1_555
C4_11 N1_7 1_555 1_555
H4_11 C4_11 1_555 1_555
C5_11 C3_11 1_555 1_555
C7_11 H5_11 1_555 1_555
C8_11 C5_11 1_555 1_555
C16_10 H11_10 1_555 1_555
Cu3_4 N1_7 1_555 1_555
C4_11 C5_11 1_555 1_555
C7_11 C8_11 1_555 1_555
S1_11 C6_11 1_555 1_555
C6_11 N2_11 1_555 1_555
Cu1_7 S1_11 1_555 1_555
N2_11 Cu1_7 1_555 1_555
N3_11 C6_11 1_555 1_555
H6_11 C9_11 1_555 1_555
N5_11 Cu1_7 1_555 1_555
H12_9 C18_11 1_555 1_555
N7_7 Cu1_7 1_555 1_555
N8_7 Cu1_7 1_555 1_555
N2_11 C9_11 1_555 1_555
N5_11 C18_11 1_555 1_555
N4_7 C10_11 1_555 1_555
C10_11 H7_7 1_555 1_555
C11_6 C10_11 1_555 1_555
H8_6 C11_6 1_555 1_555
C12_10 C11_6 1_555 1_555
H9_10 C12_10 1_555 1_555
C13_11 N4_7 1_555 1_555
H10_11 C13_11 1_555 1_555
C14_10 C12_10 1_555 1_555
C17_10 C14_10 1_555 1_555
Cu2_4 N4_7 1_555 1_555
C13_11 C14_10 1_555 1_555
N1_8 C1_12 1_555 1_555
C1_12 H1_12 1_555 1_555
C2_12 C1_12 1_555 1_555
H2_12 C2_12 1_555 1_555
C3_12 C2_12 1_555 1_555
H3_12 C3_12 1_555 1_555
C4_12 N1_8 1_555 1_555
H4_12 C4_12 1_555 1_555
C5_12 C3_12 1_555 1_555
C7_12 H5_12 1_555 1_555
C8_12 C5_12 1_555 1_555
H9_11 C12_11 1_555 1_555
C14_11 C12_11 1_555 1_555
C17_11 C14_11 1_555 1_555
Cu3_4 N1_8 1_555 1_555
C4_12 C5_12 1_555 1_555
C7_12 C8_12 1_555 1_555
S1_12 C6_12 1_555 1_555
C6_12 N2_12 1_555 1_555
Cu1_8 S1_12 1_555 1_555
N2_12 Cu1_8 1_555 1_555
N3_12 C6_12 1_555 1_555
H6_12 C9_12 1_555 1_555
S2_9 Cu1_8 1_555 1_555
C15_9 S2_9 1_555 1_555
N5_12 Cu1_8 1_555 1_555
N6_9 C15_9 1_555 1_555
N7_8 Cu1_8 1_555 1_555
N8_8 Cu1_8 1_555 1_555
N2_12 C9_12 1_555 1_555
C15_9 N5_12 1_555 1_555
N5_12 C18_12 1_555 1_555
N4_8 C10_12 1_555 1_555
C13_12 N4_8 1_555 1_555
H10_12 C13_12 1_555 1_555
C16_11 H11_11 1_555 1_555
Cu2_4 N4_8 1_555 1_555
N8_8 C1_13 1_555 1_555
C1_13 H1_13 1_555 1_555
C4_13 N8_8 1_555 1_555
H4_13 C4_13 1_555 1_555
C7_13 H5_13 1_555 1_555
S1_13 C6_13 1_555 1_555
H2_13 C2_13 1_555 1_555
C3_13 C2_13 1_555 1_555
H3_13 C3_13 1_555 1_555
C5_13 C3_13 1_555 1_555
C6_13 N2_13 1_555 1_555
Cu3_3 S1_13 1_555 1_555
N2_13 Cu3_3 1_555 1_555
C8_13 C5_13 1_555 1_555
N3_13 C6_13 1_555 1_555
S2_10 Cu3_3 1_555 1_555
N8_7 C10_13 1_555 1_555
H9_12 C12_12 1_555 1_555
C13_13 N8_7 1_555 1_555
H10_13 C13_13 1_555 1_555
C14_12 C12_12 1_555 1_555
C15_10 S2_10 1_555 1_555
C16_12 H11_12 1_555 1_555
N5_13 Cu3_3 1_555 1_555
C17_12 C14_12 1_555 1_555
N6_10 C15_10 1_555 1_555
C18_13 C16_12 1_555 1_555
H12_10 C18_13 1_555 1_555
N2_13 C9_13 1_555 1_555
C8_13 N3_13 1_555 1_555
C13_13 C14_12 1_555 1_555
C15_10 N5_13 1_555 1_555
C16_12 C17_12 1_555 1_555
N5_13 C18_13 1_555 1_555
C17_12 N6_10 1_555 1_555
N7_7 C10_14 1_555 1_555
C10_14 H7_8 1_555 1_555
C11_7 C10_14 1_555 1_555
H8_7 C11_7 1_555 1_555
C12_13 C11_7 1_555 1_555
H9_13 C12_13 1_555 1_555
C13_14 N7_7 1_555 1_555
H10_14 C13_14 1_555 1_555
C14_13 C12_13 1_555 1_555
C15_11 S2_11 1_555 1_555
C17_13 C14_13 1_555 1_555
N6_11 C15_11 1_555 1_555
C13_14 C14_13 1_555 1_555
C17_13 N6_11 1_555 1_555
S1_14 C6_14 1_555 1_555
N7_8 C1_14 1_555 1_555
C1_14 H1_14 1_555 1_555
C2_14 C1_14 1_555 1_555
H2_14 C2_14 1_555 1_555
C3_14 C2_14 1_555 1_555
H3_14 C3_14 1_555 1_555
C4_14 N7_8 1_555 1_555
H4_14 C4_14 1_555 1_555
C5_14 C3_14 1_555 1_555
C6_14 N2_14 1_555 1_555
C7_14 H5_14 1_555 1_555
Cu2_3 S1_14 1_555 1_555
N2_14 Cu2_3 1_555 1_555
C8_14 C5_14 1_555 1_555
N3_14 C6_14 1_555 1_555
C9_14 C7_14 1_555 1_555
H6_14 C9_14 1_555 1_555
C16_13 H11_13 1_555 1_555
N5_14 Cu2_3 1_555 1_555
C18_14 C16_13 1_555 1_555
H12_11 C18_14 1_555 1_555
C4_14 C5_14 1_555 1_555
C7_14 C8_14 1_555 1_555
N2_14 C9_14 1_555 1_555
C8_14 N3_14 1_555 1_555
N5_14 C18_14 1_555 1_555
S1_15 C6_15 1_555 1_555
N8_6 C1_15 1_555 1_555
C1_15 H1_15 1_555 1_555
C2_15 C1_15 1_555 1_555
H2_15 C2_15 1_555 1_555
C3_15 C2_15 1_555 1_555
H3_15 C3_15 1_555 1_555
C4_15 N8_6 1_555 1_555
H4_15 C4_15 1_555 1_555
C5_15 C3_15 1_555 1_555
C6_15 N2_15 1_555 1_555
C7_15 H5_15 1_555 1_555
Cu3_4 S1_15 1_555 1_555
N2_15 Cu3_4 1_555 1_555
C8_15 C5_15 1_555 1_555
N3_15 C6_15 1_555 1_555
C9_15 C7_15 1_555 1_555
H6_15 C9_15 1_555 1_555
S2_12 Cu3_4 1_555 1_555
N8_5 C10_15 1_555 1_555
H9_14 C12_14 1_555 1_555
C13_15 N8_5 1_555 1_555
H10_15 C13_15 1_555 1_555
C14_14 C12_14 1_555 1_555
C15_12 S2_12 1_555 1_555
C16_14 H11_14 1_555 1_555
N5_15 Cu3_4 1_555 1_555
C17_14 C14_14 1_555 1_555
N6_12 C15_12 1_555 1_555
C18_15 C16_14 1_555 1_555
H12_12 C18_15 1_555 1_555
C4_15 C5_15 1_555 1_555
C7_15 C8_15 1_555 1_555
N2_15 C9_15 1_555 1_555
C8_15 N3_15 1_555 1_555
C13_15 C14_14 1_555 1_555
C15_12 N5_15 1_555 1_555
C16_14 C17_14 1_555 1_555
N5_15 C18_15 1_555 1_555
C17_14 N6_12 1_555 1_555
N7_5 C10_16 1_555 1_555
C10_16 H7_9 1_555 1_555
C13_16 N7_5 1_555 1_555
H10_16 C13_16 1_555 1_555
S1_16 C6_16 1_555 1_555
N7_6 C1_16 1_555 1_555
C1_16 H1_16 1_555 1_555
C2_16 C1_16 1_555 1_555
H2_16 C2_16 1_555 1_555
C3_16 C2_16 1_555 1_555
H3_16 C3_16 1_555 1_555
C4_16 N7_6 1_555 1_555
H4_16 C4_16 1_555 1_555
C5_16 C3_16 1_555 1_555
C6_16 N2_16 1_555 1_555
C7_16 H5_16 1_555 1_555
Cu2_4 S1_16 1_555 1_555
N2_16 Cu2_4 1_555 1_555
C8_16 C5_16 1_555 1_555
N3_16 C6_16 1_555 1_555
C9_16 C7_16 1_555 1_555
H6_16 C9_16 1_555 1_555
N5_16 Cu2_4 1_555 1_555
C4_16 C5_16 1_555 1_555
C7_16 C8_16 1_555 1_555
N2_16 C9_16 1_555 1_555
C8_16 N3_16 1_555 1_555
N5_16 C18_16 1_555 1_555
H8_8 C11_8 1_555 1_555
H8_9 C11_9 1_555 1_555
C16_15 H11_15 1_555 1_555
H8_10 C11_10 1_555 1_555
C12_15 C11_10 1_555 1_555
H9_15 C12_15 1_555 1_555
C14_15 C12_15 1_555 1_555
C15_13 S2_13 1_555 1_555
C17_15 C14_15 1_555 1_555
N6_13 C15_13 1_555 1_555
C17_15 N6_13 1_555 1_555
C15_14 S2_14 1_555 1_555
N6_14 C15_14 1_555 1_555
H8_11 C11_11 1_555 1_555
H8_12 C11_12 1_555 1_555
H8_13 C11_13 1_555 1_555
H8_14 C11_14 1_555 1_555
H8_15 C11_15 1_555 1_555
C12_16 C11_15 1_555 1_555
H9_16 C12_16 1_555 1_555
C14_16 C12_16 1_555 1_555
C15_15 S2_15 1_555 1_555
C17_16 C14_16 1_555 1_555
N6_15 C15_15 1_555 1_555
C17_16 N6_15 1_555 1_555
C16_16 H11_16 1_555 1_555
C15_16 S2_16 1_555 1_555
N6_16 C15_16 1_555 1_555
H8_16 C11_16 1_555 1_555

#END
