
###############################################################################
#
# This file contains modified crystal structure data generated from the
# MOF subset of the Cambridge Structural Database (CSD) v542 
# hosted by the Cambridge Crystallographic Data Centre (CCDC).
#
# This work is licensed under the Creative Commons
# Attribution-NonCommercial-ShareAlike 4.0 International License.
# To view a copy of this license, visit
# http://creativecommons.org/licenses/by-nc-sa/4.0/
# or send a letter to
# Creative Commons, PO Box 1866, Mountain View, CA 94042, USA.
#
# CIF created using the CSD Python API on 22 February 2021
# The structure has been converted into the P1 space group
# The structure has a 3D framework
# The original CSD entry GUKMOR is in the rhombohedral crystal system
# The framework has been calculated to contain at least 10.0% void space
# The void calculation uses a probe of radius 1.32A, grid spacing 0.4
#
###############################################################################

data_GUKMOR
_chemical_formula_moiety         '(C180 H216 N72 O90 Zn18)n'
_symmetry_cell_setting           triclinic
_symmetry_space_group_name_H-M   'P 1'
_symmetry_Int_Tables_number      1
_space_group_name_Hall           'P 1'
loop_
_symmetry_equiv_pos_site_id
_symmetry_equiv_pos_as_xyz
1 x,y,z
_cell_length_a                   26.9735(2)
_cell_length_b                   26.9735(2)
_cell_length_c                   11.1472(4)
_cell_angle_alpha                90
_cell_angle_beta                 90
_cell_angle_gamma                120
_cell_volume                     7023.78
loop_
_atom_site_label
_atom_site_type_symbol
_atom_site_fract_x
_atom_site_fract_y
_atom_site_fract_z
O5 O 0.0123(3) 0.2228(3) 0.3643(7)
C3 C 0.0542(4) 0.3996(3) 0.3045(8)
H1 H 0.084176 0.438033 0.294458
C4 C 0.0609(3) 0.3511(4) 0.3254(9)
H2 H 0.095875 0.350675 0.331708
C5 C 0.0075(3) 0.3059(4) 0.3342(8)
Zn1 Zn 0.91536(4) 0.46855(4) 0.23623(7)
O1 O 0.9841(2) 0.4588(2) 0.2598(6)
O2 O 0.9088(2) 0.3725(2) 0.2729(6)
O3 O 0.9689(2) 0.3239(2) 0.3193(5)
O4 O 0.9273(2) 0.2177(2) 0.3674(6)
N1 N 0.8766(3) 0.4558(3) 0.3942(7)
N2 N 0.9058(2) 0.4545(4) 0.4866(9)
N3 N 0.8761(3) 0.4450(3) 0.5854(6)
C1 C 0.9600(4) 0.4049(3) 0.2774(8)
C2 C 0.9985(3) 0.3815(3) 0.3016(8)
C6 C 0.9820(4) 0.2441(4) 0.3564(8)
C7 C 0.8259(4) 0.4387(5) 0.5577(11)
H3 H 0.795452 0.430699 0.611257
C8 C 0.8264(5) 0.4462(5) 0.4299(11)
H4 H 0.796581 0.444521 0.381731
Zn2 Zn 0.91536(4) 0.44681(6) 0.73623(7)
Zn3 Zn 0.88652(6) 0.13522(4) 0.40290(7)
O6 O 0.9571(3) 0.5510(2) 0.2007(6)
N4 N 0.8761(3) 0.4311(4) 0.0854(6)
Zn1_2 Zn 0.53145(4) 0.44681(6) 0.23623(7)
O1_2 O 0.5412(2) 0.5253(3) 0.2598(6)
O2_2 O 0.6275(2) 0.5363(3) 0.2729(6)
O3_2 O 0.6761(2) 0.6450(3) 0.3193(5)
O4_2 O 0.7823(2) 0.7096(3) 0.3674(6)
O5_2 O 0.7772(3) 0.7895(4) 0.3643(7)
N1_2 N 0.5442(3) 0.4208(4) 0.3942(7)
N2_2 N 0.5455(4) 0.4513(4) 0.4866(9)
N3_2 N 0.5550(3) 0.4311(4) 0.5854(6)
C1_2 C 0.5951(3) 0.5551(5) 0.2774(8)
C2_2 C 0.6185(3) 0.6170(4) 0.3016(8)
C3_2 C 0.6004(3) 0.6546(5) 0.3045(8)
H1_2 H 0.561967 0.646143 0.294458
C4_2 C 0.6489(4) 0.7098(5) 0.3254(9)
H2_2 H 0.649325 0.745200 0.331708
C5_2 C 0.6941(4) 0.7016(5) 0.3342(8)
C6_2 C 0.7559(4) 0.7379(6) 0.3564(8)
C7_2 C 0.5613(5) 0.3872(6) 0.5577(11)
H3_2 H 0.569301 0.364753 0.611257
C8_2 C 0.5538(5) 0.3802(7) 0.4299(11)
H4_2 H 0.555479 0.352060 0.381731
Zn2_2 Zn 0.55319(6) 0.46855(7) 0.73623(7)
Zn3_2 Zn 0.86478(4) 0.75131(7) 0.40290(7)
O6_2 O 0.4490(2) 0.4060(4) 0.2007(6)
N4_2 N 0.5689(4) 0.4450(5) 0.0854(6)
Zn1_3 Zn 0.55319(6) 0.08464(4) 0.23623(7)
O1_3 O 0.4747(3) 0.0159(2) 0.2598(6)
O2_3 O 0.4637(3) 0.0912(2) 0.2729(6)
O3_3 O 0.3550(3) 0.0311(2) 0.3193(5)
O4_3 O 0.2904(3) 0.0727(2) 0.3674(6)
N1_3 N 0.5792(4) 0.1234(3) 0.3942(7)
N2_3 N 0.5487(4) 0.0942(2) 0.4866(9)
N3_3 N 0.5689(4) 0.1239(3) 0.5854(6)
C1_3 C 0.4449(5) 0.0400(4) 0.2774(8)
C2_3 C 0.3830(4) 0.0015(3) 0.3016(8)
C6_3 C 0.2621(6) 0.0180(4) 0.3564(8)
C7_3 C 0.6128(6) 0.1741(4) 0.5577(11)
H3_3 H 0.635247 0.204548 0.611257
C8_3 C 0.6198(7) 0.1736(5) 0.4299(11)
H4_3 H 0.647940 0.203419 0.381731
Zn2_3 Zn 0.53145(7) 0.08464(4) 0.73623(7)
Zn3_3 Zn 0.24869(7) 0.11348(6) 0.40290(7)
O6_3 O 0.5940(4) 0.0429(3) 0.2007(6)
N4_3 N 0.5550(5) 0.1239(3) 0.0854(6)
C7_4 C 0.6128(6) 0.4387(5) 0.0577(11)
H3_4 H 0.635247 0.430699 0.111257
O1_4 O 0.4747(3) 0.4588(2) 0.7598(6)
O2_4 O 0.4637(3) 0.3725(2) 0.7729(6)
O3_4 O 0.3550(3) 0.3239(2) 0.8193(5)
O4_4 O 0.2904(3) 0.2177(2) 0.8674(6)
O5_3 O 0.2105(4) 0.2228(3) 0.8643(7)
N1_4 N 0.5792(4) 0.4558(3) 0.8942(7)
N2_4 N 0.5487(4) 0.4545(4) 0.9866(9)
C1_4 C 0.4449(5) 0.4049(3) 0.7774(8)
C2_4 C 0.3830(4) 0.3815(3) 0.8016(8)
C3_3 C 0.3454(5) 0.3996(3) 0.8045(8)
H1_3 H 0.353857 0.438033 0.794458
C4_3 C 0.2902(5) 0.3511(4) 0.8254(9)
H2_3 H 0.254800 0.350675 0.831708
C5_3 C 0.2984(5) 0.3059(4) 0.8342(8)
C6_4 C 0.2621(6) 0.2441(4) 0.8564(8)
C8_4 C 0.6198(7) 0.4462(5) 0.9299(11)
H4_4 H 0.647940 0.444521 0.881731
Zn3_4 Zn 0.24869(7) 0.13522(4) 0.90290(7)
O6_4 O 0.5940(4) 0.5510(2) 0.7007(6)
C7_5 C 0.8259(4) 0.3872(6) 0.0577(11)
H3_5 H 0.795452 0.364753 0.111257
O1_5 O 0.9841(2) 0.5253(3) 0.7598(6)
O2_5 O 0.9088(2) 0.5363(3) 0.7729(6)
O3_5 O 0.9689(2) 0.6450(3) 0.8193(5)
O4_5 O 0.9273(2) 0.7096(3) 0.8674(6)
N1_5 N 0.8766(3) 0.4208(4) 0.8942(7)
N2_5 N 0.9058(2) 0.4513(4) 0.9866(9)
C1_5 C 0.9600(4) 0.5551(5) 0.7774(8)
C2_5 C 0.9985(3) 0.6170(4) 0.8016(8)
C6_5 C 0.9820(4) 0.7379(6) 0.8564(8)
C8_5 C 0.8264(5) 0.3802(7) 0.9299(11)
H4_5 H 0.796581 0.352060 0.881731
Zn3_5 Zn 0.88652(6) 0.75131(7) 0.90290(7)
O6_5 O 0.9571(3) 0.4060(4) 0.7007(6)
C7_6 C 0.5613(5) 0.1741(4) 0.0577(11)
H3_6 H 0.569301 0.204548 0.111257
O1_6 O 0.5412(2) 0.0159(2) 0.7598(6)
O2_6 O 0.6275(2) 0.0912(2) 0.7729(6)
O3_6 O 0.6761(2) 0.0311(2) 0.8193(5)
O4_6 O 0.7823(2) 0.0727(2) 0.8674(6)
N1_6 N 0.5442(3) 0.1234(3) 0.8942(7)
N2_6 N 0.5455(4) 0.0942(2) 0.9866(9)
C1_6 C 0.5951(3) 0.0400(4) 0.7774(8)
C2_6 C 0.6185(3) 0.0015(3) 0.8016(8)
C6_6 C 0.7559(4) 0.0180(4) 0.8564(8)
C8_6 C 0.5538(5) 0.1736(5) 0.9299(11)
H4_6 H 0.555479 0.203419 0.881731
Zn3_6 Zn 0.86478(4) 0.11348(6) 0.90290(7)
O6_6 O 0.4490(2) 0.0429(3) 0.7007(6)
Zn2_4 Zn 0.58203(4) 0.78014(6) 0.06956(7)
Zn1_4 Zn 0.58203(4) 0.80188(4) 0.56956(7)
O1_7 O 0.6508(2) 0.7921(2) 0.5931(6)
O2_7 O 0.5755(2) 0.7058(2) 0.6062(6)
O3_7 O 0.6356(2) 0.6572(2) 0.6526(5)
O5_4 O 0.6790(3) 0.5561(3) 0.6976(7)
N1_7 N 0.5433(3) 0.7891(3) 0.7275(7)
N2_7 N 0.5725(2) 0.7878(4) 0.8199(9)
N3_4 N 0.5428(3) 0.7783(3) 0.9187(6)
C1_7 C 0.6267(4) 0.7382(3) 0.6107(8)
C2_7 C 0.6652(3) 0.7148(3) 0.6349(8)
C3_4 C 0.7209(4) 0.7329(3) 0.6378(8)
H1_4 H 0.750843 0.771366 0.627791
C4_4 C 0.7276(3) 0.6844(4) 0.6587(9)
H2_4 H 0.762542 0.684008 0.665041
C5_4 C 0.6742(3) 0.6392(4) 0.6675(8)
C6_7 C 0.6487(4) 0.5774(4) 0.6897(8)
C7_7 C 0.4926(4) 0.7720(5) 0.8910(11)
H3_7 H 0.462119 0.764032 0.944590
C8_7 C 0.4931(5) 0.7795(5) 0.7632(11)
H4_7 H 0.463248 0.777854 0.715064
O6_7 O 0.6237(3) 0.8844(2) 0.5341(6)
N4_4 N 0.5428(3) 0.7644(4) 0.4187(6)
O5_5 O 0.4439(3) 0.1228(4) 0.6976(7)
C4_5 C 0.3156(4) 0.0431(5) 0.6587(9)
H2_5 H 0.315992 0.078533 0.665041
C5_5 C 0.3608(4) 0.0349(5) 0.6675(8)
C6_8 C 0.4226(4) 0.0712(6) 0.6897(8)
Zn2_5 Zn 0.19812(7) 0.41797(4) 0.06956(7)
Zn1_5 Zn 0.21986(6) 0.41797(4) 0.56956(7)
O1_8 O 0.1414(3) 0.3492(2) 0.5931(6)
O2_8 O 0.1304(3) 0.4245(2) 0.6062(6)
O3_8 O 0.0217(3) 0.3644(2) 0.6526(5)
N1_8 N 0.2459(4) 0.4567(3) 0.7275(7)
N2_8 N 0.2154(4) 0.4275(2) 0.8199(9)
N3_5 N 0.2356(4) 0.4572(3) 0.9187(6)
C1_8 C 0.1116(5) 0.3733(4) 0.6107(8)
C2_8 C 0.0497(4) 0.3348(3) 0.6349(8)
C3_5 C 0.0121(5) 0.2791(4) 0.6378(8)
H1_5 H 0.020524 0.249157 0.627791
C7_8 C 0.2795(6) 0.5074(4) 0.8910(11)
H3_8 H 0.301914 0.537881 0.944590
C8_8 C 0.2865(7) 0.5069(5) 0.7632(11)
H4_8 H 0.314607 0.536752 0.715064
O6_8 O 0.2606(4) 0.3763(3) 0.5341(6)
N4_5 N 0.2217(5) 0.4572(3) 0.4187(6)
O5_6 O 0.8772(4) 0.3210(3) 0.6976(7)
C4_6 C 0.9569(5) 0.2724(3) 0.6587(9)
H2_6 H 0.921467 0.237458 0.665041
C5_6 C 0.9651(5) 0.3258(3) 0.6675(8)
C6_9 C 0.9288(6) 0.3513(4) 0.6897(8)
O5_7 O 0.8772(4) 0.5561(3) 0.1976(7)
C4_7 C 0.9569(5) 0.6844(4) 0.1587(9)
H2_7 H 0.921467 0.684008 0.165041
C5_7 C 0.9651(5) 0.6392(4) 0.1675(8)
C6_10 C 0.9288(6) 0.5774(4) 0.1897(8)
O5_8 O 0.6790(3) 0.1228(4) 0.1976(7)
C4_8 C 0.7276(3) 0.0431(5) 0.1587(9)
H2_8 H 0.762542 0.078533 0.165041
C5_8 C 0.6742(3) 0.0349(5) 0.1675(8)
C6_11 C 0.6487(4) 0.0712(6) 0.1897(8)
O1_9 O 0.6508(2) 0.8586(3) 0.0931(6)
O2_9 O 0.5755(2) 0.8696(3) 0.1062(6)
O3_9 O 0.6356(2) 0.9783(3) 0.1526(5)
N1_9 N 0.5433(3) 0.7541(4) 0.2275(7)
N2_9 N 0.5725(2) 0.7846(4) 0.3199(9)
C1_9 C 0.6267(4) 0.8884(5) 0.1107(8)
C2_9 C 0.6652(3) 0.9503(4) 0.1349(8)
C3_6 C 0.7209(4) 0.9879(5) 0.1378(8)
H1_6 H 0.750843 0.979476 0.127791
C7_9 C 0.4926(4) 0.7205(6) 0.3910(11)
H3_9 H 0.462119 0.698086 0.444590
C8_9 C 0.4931(5) 0.7135(7) 0.2632(11)
H4_9 H 0.463248 0.685393 0.215064
O6_9 O 0.6237(3) 0.7394(4) 0.0341(6)
O1_10 O 0.2079(2) 0.3492(2) 0.0931(6)
O2_10 O 0.2942(2) 0.4245(2) 0.1062(6)
O3_10 O 0.3428(2) 0.3644(2) 0.1526(5)
O5_9 O 0.4439(3) 0.3210(3) 0.1976(7)
N1_10 N 0.2109(3) 0.4567(3) 0.2275(7)
N2_10 N 0.2122(4) 0.4275(2) 0.3199(9)
C1_10 C 0.2618(3) 0.3733(4) 0.1107(8)
C2_10 C 0.2852(3) 0.3348(3) 0.1349(8)
C3_7 C 0.2671(3) 0.2791(4) 0.1378(8)
H1_7 H 0.228634 0.249157 0.127791
C4_9 C 0.3156(4) 0.2724(3) 0.1587(9)
H2_9 H 0.315992 0.237458 0.165041
C5_9 C 0.3608(4) 0.3258(3) 0.1675(8)
C6_12 C 0.4226(4) 0.3513(4) 0.1897(8)
C7_10 C 0.2280(5) 0.5074(4) 0.3910(11)
H3_10 H 0.235968 0.537881 0.444590
C8_10 C 0.2205(5) 0.5069(5) 0.2632(11)
H4_10 H 0.222146 0.536752 0.215064
O6_10 O 0.1156(2) 0.3763(3) 0.0341(6)
N1_11 N 0.2099(3) 0.1225(3) 0.0609(7)
N2_11 N 0.2391(2) 0.1212(4) 0.1533(9)
N3_6 N 0.2094(3) 0.1117(3) 0.2521(6)
C7_11 C 0.1592(4) 0.1054(5) 0.2244(11)
H3_11 H 0.128785 0.097366 0.277924
C8_11 C 0.1597(5) 0.1129(5) 0.0966(11)
H4_11 H 0.129914 0.111188 0.048398
O1_11 O 0.3174(2) 0.1255(2) 0.9265(6)
O2_11 O 0.2421(2) 0.0392(2) 0.9396(6)
C1_11 C 0.2933(4) 0.0716(3) 0.9441(8)
C2_11 C 0.3318(3) 0.0482(3) 0.9683(8)
C3_8 C 0.3875(4) 0.0663(3) 0.9712(8)
H1_8 H 0.417509 0.104700 0.961125
C4_10 C 0.3942(3) 0.0178(4) 0.9921(9)
H2_10 H 0.429208 0.017342 0.998375
N4_6 N 0.2094(3) 0.0978(4) 0.7521(6)
O5_10 O 0.1105(3) 0.4562(4) 0.0310(7)
C5_10 C 0.0274(4) 0.3683(5) 0.0009(8)
C6_13 C 0.0892(4) 0.4046(6) 0.0231(8)
N1_12 N 0.8775(3) 0.0875(4) 0.0609(7)
N2_12 N 0.8788(4) 0.1180(4) 0.1533(9)
N3_7 N 0.8883(3) 0.0978(4) 0.2521(6)
C7_12 C 0.8946(5) 0.0539(6) 0.2244(11)
H3_12 H 0.902634 0.031420 0.277924
C8_12 C 0.8871(5) 0.0469(7) 0.0966(11)
H4_12 H 0.888812 0.018727 0.048398
O1_12 O 0.8745(2) 0.1920(3) 0.9265(6)
O2_12 O 0.9608(2) 0.2030(3) 0.9396(6)
C1_12 C 0.9284(3) 0.2218(5) 0.9441(8)
C2_12 C 0.9518(3) 0.2837(4) 0.9683(8)
C3_9 C 0.9337(3) 0.3213(5) 0.9712(8)
H1_9 H 0.895300 0.312810 0.961125
C4_11 C 0.9822(4) 0.3765(5) 0.9921(9)
H2_11 H 0.982658 0.411867 0.998375
N4_7 N 0.9022(4) 0.1117(5) 0.7521(6)
O5_11 O 0.5438(4) 0.6544(3) 0.0310(7)
N1_13 N 0.9125(4) 0.7901(3) 0.0609(7)
N2_13 N 0.8820(4) 0.7609(2) 0.1533(9)
N3_8 N 0.9022(4) 0.7906(3) 0.2521(6)
C5_11 C 0.6317(5) 0.6592(3) 0.0009(8)
C6_14 C 0.5954(6) 0.6847(4) 0.0231(8)
C7_13 C 0.9461(6) 0.8408(4) 0.2244(11)
H3_13 H 0.968580 0.871215 0.277924
C8_13 C 0.9531(7) 0.8403(5) 0.0966(11)
H4_13 H 0.981273 0.870086 0.048398
O1_13 O 0.8080(3) 0.6826(2) 0.9265(6)
O2_13 O 0.7970(3) 0.7579(2) 0.9396(6)
O3_11 O 0.6883(3) 0.6978(2) 0.9860(5)
C1_13 C 0.7782(5) 0.7067(4) 0.9441(8)
C2_13 C 0.7163(4) 0.6682(3) 0.9683(8)
C3_10 C 0.6787(5) 0.6125(4) 0.9712(8)
H1_10 H 0.687190 0.582491 0.961125
C4_12 C 0.6235(5) 0.6058(3) 0.9921(9)
H2_12 H 0.588133 0.570792 0.998375
N4_8 N 0.8883(5) 0.7906(3) 0.7521(6)
O1_14 O 0.8080(3) 0.1255(2) 0.4265(6)
O2_14 O 0.7970(3) 0.0392(2) 0.4396(6)
N1_14 N 0.9125(4) 0.1225(3) 0.5609(7)
N2_14 N 0.8820(4) 0.1212(4) 0.6533(9)
C1_14 C 0.7782(5) 0.0716(3) 0.4441(8)
C2_14 C 0.7163(4) 0.0482(3) 0.4683(8)
C3_11 C 0.6787(5) 0.0663(3) 0.4712(8)
H1_11 H 0.687190 0.104700 0.461125
C4_13 C 0.6235(5) 0.0178(4) 0.4921(9)
H2_13 H 0.588133 0.017342 0.498375
C7_14 C 0.9461(6) 0.1054(5) 0.7244(11)
H3_14 H 0.968580 0.097366 0.777924
C8_14 C 0.9531(7) 0.1129(5) 0.5966(11)
H4_14 H 0.981273 0.111188 0.548398
O3_12 O 0.6883(3) 0.9906(2) 0.4860(5)
O5_12 O 0.5438(4) 0.8895(3) 0.5310(7)
C5_12 C 0.6317(5) 0.9726(4) 0.5009(8)
C6_15 C 0.5954(6) 0.9108(4) 0.5231(8)
O1_15 O 0.3174(2) 0.1920(3) 0.4265(6)
O2_15 O 0.2421(2) 0.2030(3) 0.4396(6)
O3_13 O 0.3022(2) 0.3117(3) 0.4860(5)
O5_13 O 0.3456(3) 0.4562(4) 0.5310(7)
N1_15 N 0.2099(3) 0.0875(4) 0.5609(7)
N2_15 N 0.2391(2) 0.1180(4) 0.6533(9)
C1_15 C 0.2933(4) 0.2218(5) 0.4441(8)
C2_15 C 0.3318(3) 0.2837(4) 0.4683(8)
C3_12 C 0.3875(4) 0.3213(5) 0.4712(8)
H1_12 H 0.417509 0.312810 0.461125
C4_14 C 0.3942(3) 0.3765(5) 0.4921(9)
H2_14 H 0.429208 0.411867 0.498375
C5_13 C 0.3408(3) 0.3683(5) 0.5009(8)
C6_16 C 0.3153(4) 0.4046(6) 0.5231(8)
C7_15 C 0.1592(4) 0.0539(6) 0.7244(11)
H3_15 H 0.128785 0.031420 0.777924
C8_15 C 0.1597(5) 0.0469(7) 0.5966(11)
H4_15 H 0.129914 0.018727 0.548398
O1_16 O 0.8745(2) 0.6826(2) 0.4265(6)
O2_16 O 0.9608(2) 0.7579(2) 0.4396(6)
N1_16 N 0.8775(3) 0.7901(3) 0.5609(7)
N2_16 N 0.8788(4) 0.7609(2) 0.6533(9)
C1_16 C 0.9284(3) 0.7067(4) 0.4441(8)
C2_16 C 0.9518(3) 0.6682(3) 0.4683(8)
C3_13 C 0.9337(3) 0.6125(4) 0.4712(8)
H1_13 H 0.895300 0.582491 0.461125
C4_15 C 0.9822(4) 0.6058(3) 0.4921(9)
H2_15 H 0.982658 0.570792 0.498375
C7_16 C 0.8946(5) 0.8408(4) 0.7244(11)
H3_16 H 0.902634 0.871215 0.777924
C8_16 C 0.8871(5) 0.8403(5) 0.5966(11)
H4_16 H 0.888812 0.870086 0.548398
O5_14 O 0.2105(4) 0.9877(3) 0.3643(7)
C3_14 C 0.3454(5) 0.9458(4) 0.3045(8)
H1_14 H 0.353857 0.915824 0.294458
C4_16 C 0.2902(5) 0.9391(3) 0.3254(9)
H2_16 H 0.254800 0.904125 0.331708
C5_14 C 0.2984(5) 0.9925(3) 0.3342(8)
O5_15 O 0.0123(3) 0.7895(4) 0.8643(7)
C3_15 C 0.0542(4) 0.6546(5) 0.8045(8)
H1_15 H 0.084176 0.646143 0.794458
C4_17 C 0.0609(3) 0.7098(5) 0.8254(9)
H2_17 H 0.095875 0.745200 0.831708
C5_15 C 0.0075(3) 0.7016(5) 0.8342(8)
O5_16 O 0.7772(3) 0.9877(3) 0.8643(7)
C3_16 C 0.6004(3) 0.9458(4) 0.8045(8)
H1_16 H 0.561967 0.915824 0.794458
C4_18 C 0.6489(4) 0.9391(3) 0.8254(9)
H2_18 H 0.649325 0.904125 0.831708
C5_16 C 0.6941(4) 0.9925(3) 0.8342(8)
Zn2_6 Zn 0.21986(6) 0.80188(7) 0.06956(7)
Zn1_6 Zn 0.19812(4) 0.78014(6) 0.56956(7)
O1_17 O 0.2079(2) 0.8586(3) 0.5931(6)
O2_17 O 0.2942(2) 0.8696(3) 0.6062(6)
O3_14 O 0.3428(2) 0.9783(3) 0.6526(5)
N1_17 N 0.2109(3) 0.7541(4) 0.7275(7)
N2_17 N 0.2122(4) 0.7846(4) 0.8199(9)
N3_9 N 0.2217(3) 0.7644(4) 0.9187(6)
C1_17 C 0.2618(3) 0.8884(5) 0.6107(8)
C2_17 C 0.2852(3) 0.9503(4) 0.6349(8)
C3_17 C 0.2671(3) 0.9879(5) 0.6378(8)
H1_17 H 0.228634 0.979476 0.627791
C7_17 C 0.2280(5) 0.7205(6) 0.8910(11)
H3_17 H 0.235968 0.698086 0.944590
C8_17 C 0.2205(5) 0.7135(7) 0.7632(11)
H4_17 H 0.222146 0.685393 0.715064
O6_11 O 0.1156(2) 0.7394(4) 0.5341(6)
N4_9 N 0.2356(4) 0.7783(5) 0.4187(6)
O1_18 O 0.1414(3) 0.7921(2) 0.0931(6)
O2_18 O 0.1304(3) 0.7058(2) 0.1062(6)
O3_15 O 0.0217(3) 0.6572(2) 0.1526(5)
N1_18 N 0.2459(4) 0.7891(3) 0.2275(7)
N2_18 N 0.2154(4) 0.7878(4) 0.3199(9)
C1_18 C 0.1116(5) 0.7382(3) 0.1107(8)
C2_18 C 0.0497(4) 0.7148(3) 0.1349(8)
C3_18 C 0.0121(5) 0.7329(3) 0.1378(8)
H1_18 H 0.020524 0.771366 0.127791
C7_18 C 0.2795(6) 0.7720(5) 0.3910(11)
H3_18 H 0.301914 0.764032 0.444590
C8_18 C 0.2865(7) 0.7795(5) 0.2632(11)
H4_18 H 0.314607 0.777854 0.215064
O6_12 O 0.2606(4) 0.8844(2) 0.0341(6)
O5_17 O 0.3456(3) 0.8895(3) 0.0310(7)
C5_17 C 0.3408(3) 0.9726(4) 0.0009(8)
C6_17 C 0.3153(4) 0.9108(4) 0.0231(8)
O3_16 O 0.0094(2) 0.6978(2) 0.4860(5)
O5_18 O 0.1105(3) 0.6544(3) 0.5310(7)
C5_18 C 0.0274(4) 0.6592(3) 0.5009(8)
C6_18 C 0.0892(4) 0.6847(4) 0.5231(8)
O3_17 O 0.3022(2) 0.9906(2) 0.9860(5)
O3_18 O 0.0094(2) 0.3117(3) 0.9860(5)
N5 N 0.8510(3) 0.2560(3) 0.3185(8)
H5 H 0.872307 0.293122 0.294469
H6 H 0.875478 0.242697 0.332547
C9 C 0.8228(7) 0.2546(6) 0.4302(13)
H7 H 0.793582 0.265335 0.415099
H8 H 0.851084 0.281646 0.487102
H9 H 0.804627 0.215883 0.463875
C10 C 0.8135(5) 0.2235(5) 0.2221(13)
H10 H 0.834585 0.235062 0.146097
H11 H 0.781286 0.230638 0.218503
H12 H 0.799034 0.182653 0.235748
N5_2 N 0.7440(3) 0.5950(4) 0.3185(8)
H5_2 H 0.706878 0.579185 0.294469
H6_2 H 0.757303 0.632781 0.332547
C9_2 C 0.7454(6) 0.5682(9) 0.4302(13)
H7_2 H 0.734665 0.528247 0.415099
H8_2 H 0.718354 0.569438 0.487102
H9_2 H 0.784117 0.588744 0.463875
C10_2 C 0.7765(5) 0.5900(7) 0.2221(13)
H10_2 H 0.764938 0.599523 0.146097
H11_2 H 0.769362 0.550648 0.218503
H12_2 H 0.817347 0.616381 0.235748
N5_3 N 0.4050(4) 0.1490(3) 0.3185(8)
H5_3 H 0.420815 0.127693 0.294469
H6_3 H 0.367219 0.124522 0.332547
C9_3 C 0.4318(9) 0.1772(7) 0.4302(13)
H7_3 H 0.471753 0.206418 0.415099
H8_3 H 0.430562 0.148916 0.487102
H9_3 H 0.411256 0.195373 0.463875
C10_3 C 0.4100(7) 0.1865(5) 0.2221(13)
H10_3 H 0.400477 0.165415 0.146097
H11_3 H 0.449352 0.218714 0.218503
H12_3 H 0.383619 0.200966 0.235748
N5_4 N 0.4050(4) 0.2560(3) 0.8185(8)
H5_4 H 0.420815 0.293122 0.794469
H6_4 H 0.367219 0.242697 0.832547
C9_4 C 0.4318(9) 0.2546(6) 0.9302(13)
H7_4 H 0.471753 0.265335 0.915099
H8_4 H 0.430562 0.281646 0.987102
H9_4 H 0.411256 0.215883 0.963875
C10_4 C 0.4100(7) 0.2235(5) 0.7221(13)
H10_4 H 0.400477 0.235062 0.646097
H11_4 H 0.449352 0.230638 0.718503
H12_4 H 0.383619 0.182653 0.735748
N5_5 N 0.8510(3) 0.5950(4) 0.8185(8)
H5_5 H 0.872307 0.579185 0.794469
H6_5 H 0.875478 0.632781 0.832547
C9_5 C 0.8228(7) 0.5682(9) 0.9302(13)
H7_5 H 0.793582 0.528247 0.915099
H8_5 H 0.851084 0.569438 0.987102
H9_5 H 0.804627 0.588744 0.963875
C10_5 C 0.8135(5) 0.5900(7) 0.7221(13)
H10_5 H 0.834585 0.599523 0.646097
H11_5 H 0.781286 0.550648 0.718503
H12_5 H 0.799034 0.616381 0.735748
N5_6 N 0.7440(3) 0.1490(3) 0.8185(8)
H5_6 H 0.706878 0.127693 0.794469
H6_6 H 0.757303 0.124522 0.832547
C9_6 C 0.7454(6) 0.1772(7) 0.9302(13)
H7_6 H 0.734665 0.206418 0.915099
H8_6 H 0.718354 0.148916 0.987102
H9_6 H 0.784117 0.195373 0.963875
C10_6 C 0.7765(5) 0.1865(5) 0.7221(13)
H10_6 H 0.764938 0.165415 0.646097
H11_6 H 0.769362 0.218714 0.718503
H12_6 H 0.817347 0.200966 0.735748
N5_7 N 0.5177(3) 0.5893(3) 0.6518(8)
H5_7 H 0.538974 0.626455 0.627802
H6_7 H 0.542145 0.576030 0.665880
C9_7 C 0.4895(7) 0.5879(6) 0.7635(13)
H7_7 H 0.460249 0.598668 0.748432
H8_7 H 0.517751 0.614979 0.820435
H9_7 H 0.471294 0.549216 0.797208
C10_7 C 0.4802(5) 0.5568(5) 0.5554(13)
H10_7 H 0.501252 0.568395 0.479430
H11_7 H 0.447953 0.563971 0.551836
H12_7 H 0.465701 0.515986 0.569081
N5_8 N 0.4107(3) 0.9283(4) 0.6518(8)
H5_8 H 0.373545 0.912518 0.627802
H6_8 H 0.423970 0.966114 0.665880
C9_8 C 0.4121(6) 0.9015(9) 0.7635(13)
H7_8 H 0.401332 0.861580 0.748432
H8_8 H 0.385021 0.902771 0.820435
H9_8 H 0.450784 0.922077 0.797208
C10_8 C 0.4432(5) 0.9233(7) 0.5554(13)
H10_8 H 0.431605 0.932856 0.479430
H11_8 H 0.436029 0.883981 0.551836
H12_8 H 0.484014 0.949714 0.569081
N5_9 N 0.0717(4) 0.4823(3) 0.6518(8)
H5_9 H 0.087482 0.461026 0.627802
H6_9 H 0.033886 0.457855 0.665880
C9_9 C 0.0985(9) 0.5105(7) 0.7635(13)
H7_9 H 0.138420 0.539751 0.748432
H8_9 H 0.097229 0.482249 0.820435
H9_9 H 0.077923 0.528706 0.797208
C10_9 C 0.0767(7) 0.5198(5) 0.5554(13)
H10_9 H 0.067144 0.498748 0.479430
H11_9 H 0.116019 0.552047 0.551836
H12_9 H 0.050286 0.534299 0.569081
N5_10 N 0.0717(4) 0.5893(3) 0.1518(8)
H5_10 H 0.087482 0.626455 0.127802
H6_10 H 0.033886 0.576030 0.165880
C9_10 C 0.0985(9) 0.5879(6) 0.2635(13)
H7_10 H 0.138420 0.598668 0.248432
H8_10 H 0.097229 0.614979 0.320435
H9_10 H 0.077923 0.549216 0.297208
C10_10 C 0.0767(7) 0.5568(5) 0.0554(13)
H11_10 H 0.116019 0.563971 0.051836
H12_10 H 0.050286 0.515986 0.069081
H10_10 H 0.067144 0.568395 0.979430
N5_11 N 0.5177(3) 0.9283(4) 0.1518(8)
H5_11 H 0.538974 0.912518 0.127802
H6_11 H 0.542145 0.966114 0.165880
C9_11 C 0.4895(7) 0.9015(9) 0.2635(13)
H7_11 H 0.460249 0.861580 0.248432
H8_11 H 0.517751 0.902771 0.320435
H9_11 H 0.471294 0.922077 0.297208
C10_11 C 0.4802(5) 0.9233(7) 0.0554(13)
H11_11 H 0.447953 0.883981 0.051836
H12_11 H 0.465701 0.949714 0.069081
H10_11 H 0.501252 0.932856 0.979430
N5_12 N 0.4107(3) 0.4823(3) 0.1518(8)
H5_12 H 0.373545 0.461026 0.127802
H6_12 H 0.423970 0.457855 0.165880
C9_12 C 0.4121(6) 0.5105(7) 0.2635(13)
H7_12 H 0.401332 0.539751 0.248432
H8_12 H 0.385021 0.482249 0.320435
H9_12 H 0.450784 0.528706 0.297208
C10_12 C 0.4432(5) 0.5198(5) 0.0554(13)
H11_12 H 0.436029 0.552047 0.051836
H12_12 H 0.484014 0.534299 0.069081
H10_12 H 0.431605 0.498748 0.979430
C9_13 C 0.1561(7) 0.9213(6) 0.0969(13)
H7_13 H 0.126915 0.932002 0.081766
H8_13 H 0.184417 0.948313 0.153769
H9_13 H 0.137960 0.882550 0.130542
N5_13 N 0.1843(3) 0.9227(3) 0.9852(8)
H5_13 H 0.205640 0.959789 0.961136
H6_13 H 0.208811 0.909364 0.999214
C10_13 C 0.1468(5) 0.8902(5) 0.8888(13)
H10_13 H 0.167918 0.901729 0.812764
H11_13 H 0.114619 0.897305 0.885170
H12_13 H 0.132367 0.849320 0.902415
C9_14 C 0.0787(6) 0.2349(9) 0.0969(13)
H7_14 H 0.067998 0.194914 0.081766
H8_14 H 0.051687 0.236105 0.153769
H9_14 H 0.117450 0.255411 0.130542
N5_14 N 0.0773(3) 0.2617(4) 0.9852(8)
H5_14 H 0.040211 0.245852 0.961136
H6_14 H 0.090636 0.299448 0.999214
C10_14 C 0.1098(5) 0.2567(7) 0.8888(13)
H10_14 H 0.098271 0.266190 0.812764
H11_14 H 0.102695 0.217315 0.885170
H12_14 H 0.150680 0.283048 0.902415
C9_15 C 0.7651(9) 0.8439(7) 0.0969(13)
H7_15 H 0.805086 0.873085 0.081766
H8_15 H 0.763895 0.815583 0.153769
H9_15 H 0.744589 0.862040 0.130542
N5_15 N 0.7383(4) 0.8157(3) 0.9852(8)
H5_15 H 0.754148 0.794360 0.961136
H6_15 H 0.700552 0.791189 0.999214
C10_15 C 0.7433(7) 0.8532(5) 0.8888(13)
H10_15 H 0.733810 0.832082 0.812764
H11_15 H 0.782685 0.885381 0.885170
H12_15 H 0.716952 0.867633 0.902415
N5_16 N 0.7383(4) 0.9227(3) 0.4852(8)
H5_16 H 0.754148 0.959789 0.461136
H6_16 H 0.700552 0.909364 0.499214
C9_16 C 0.7651(9) 0.9213(6) 0.5969(13)
H7_16 H 0.805086 0.932002 0.581766
H8_16 H 0.763895 0.948313 0.653769
H9_16 H 0.744589 0.882550 0.630542
C10_16 C 0.7433(7) 0.8902(5) 0.3888(13)
H10_16 H 0.733810 0.901729 0.312764
H11_16 H 0.782685 0.897305 0.385170
H12_16 H 0.716952 0.849320 0.402415
N5_17 N 0.1843(3) 0.2617(4) 0.4852(8)
H5_17 H 0.205640 0.245852 0.461136
H6_17 H 0.208811 0.299448 0.499214
C9_17 C 0.1561(7) 0.2349(9) 0.5969(13)
H7_17 H 0.126915 0.194914 0.581766
H8_17 H 0.184417 0.236105 0.653769
H9_17 H 0.137960 0.255411 0.630542
C10_17 C 0.1468(5) 0.2567(7) 0.3888(13)
H10_17 H 0.167918 0.266190 0.312764
H11_17 H 0.114619 0.217315 0.385170
H12_17 H 0.132367 0.283048 0.402415
N5_18 N 0.0773(3) 0.8157(3) 0.4852(8)
H5_18 H 0.040211 0.794360 0.461136
H6_18 H 0.090636 0.791189 0.499214
C9_18 C 0.0787(6) 0.8439(7) 0.5969(13)
H7_18 H 0.067998 0.873085 0.581766
H8_18 H 0.051687 0.815583 0.653769
H9_18 H 0.117450 0.862040 0.630542
C10_18 C 0.1098(5) 0.8532(5) 0.3888(13)
H10_18 H 0.098271 0.832082 0.312764
H11_18 H 0.102695 0.885381 0.385170
H12_18 H 0.150680 0.867633 0.402415
loop_
_geom_bond_atom_site_label_1
_geom_bond_atom_site_label_2
_geom_bond_site_symmetry_1
_geom_bond_site_symmetry_2
H1 C3 1_555 1_555
C4 C3 1_555 1_555
H2 C4 1_555 1_555
C4 C5 1_555 1_555
Zn1 O1 1_555 1_555
O1 C1 1_555 1_555
O2 Zn1 1_555 1_555
O3 C2 1_555 1_555
O4 C6 1_555 1_555
N1 Zn1 1_555 1_555
N2 N1 1_555 1_555
N3 N2 1_555 1_555
C1 O2 1_555 1_555
C2 C1 1_555 1_555
C7 N3 1_555 1_555
H3 C7 1_555 1_555
C8 N1 1_555 1_555
H4 C8 1_555 1_555
Zn2 N3 1_555 1_555
Zn3 O4 1_555 1_555
O6 Zn1 1_555 1_555
N4 Zn1 1_555 1_555
C7 C8 1_555 1_555
Zn1_2 O1_2 1_555 1_555
O1_2 C1_2 1_555 1_555
O2_2 Zn1_2 1_555 1_555
O3_2 C2_2 1_555 1_555
O4_2 C6_2 1_555 1_555
O5_2 C6_2 1_555 1_555
N1_2 Zn1_2 1_555 1_555
N2_2 N1_2 1_555 1_555
N3_2 N2_2 1_555 1_555
C1_2 O2_2 1_555 1_555
C2_2 C1_2 1_555 1_555
C3_2 C2_2 1_555 1_555
H1_2 C3_2 1_555 1_555
C4_2 C3_2 1_555 1_555
H2_2 C4_2 1_555 1_555
C5_2 O3_2 1_555 1_555
C6_2 C5_2 1_555 1_555
C7_2 N3_2 1_555 1_555
H3_2 C7_2 1_555 1_555
C8_2 N1_2 1_555 1_555
H4_2 C8_2 1_555 1_555
Zn2_2 N3_2 1_555 1_555
Zn3_2 O4_2 1_555 1_555
O6_2 Zn1_2 1_555 1_555
N4_2 Zn1_2 1_555 1_555
C4_2 C5_2 1_555 1_555
C7_2 C8_2 1_555 1_555
Zn1_3 O1_3 1_555 1_555
O1_3 C1_3 1_555 1_555
O2_3 Zn1_3 1_555 1_555
O3_3 C2_3 1_555 1_555
O4_3 C6_3 1_555 1_555
N1_3 Zn1_3 1_555 1_555
N2_3 N1_3 1_555 1_555
N3_3 N2_3 1_555 1_555
C1_3 O2_3 1_555 1_555
C2_3 C1_3 1_555 1_555
C7_3 N3_3 1_555 1_555
H3_3 C7_3 1_555 1_555
C8_3 N1_3 1_555 1_555
H4_3 C8_3 1_555 1_555
Zn2_3 N3_3 1_555 1_555
Zn3_3 O4_3 1_555 1_555
O6_3 Zn1_3 1_555 1_555
N4_3 Zn1_3 1_555 1_555
C7_3 C8_3 1_555 1_555
C7_4 N4_2 1_555 1_555
H3_4 C7_4 1_555 1_555
Zn2_2 O1_4 1_555 1_555
O1_4 C1_4 1_555 1_555
O2_4 Zn2_2 1_555 1_555
O3_4 C2_4 1_555 1_555
O4_4 C6_4 1_555 1_555
O5_3 C6_4 1_555 1_555
N1_4 Zn2_2 1_555 1_555
N2_4 N1_4 1_555 1_555
C1_4 O2_4 1_555 1_555
C2_4 C1_4 1_555 1_555
C3_3 C2_4 1_555 1_555
H1_3 C3_3 1_555 1_555
C4_3 C3_3 1_555 1_555
H2_3 C4_3 1_555 1_555
C5_3 O3_4 1_555 1_555
C6_4 C5_3 1_555 1_555
C8_4 N1_4 1_555 1_555
H4_4 C8_4 1_555 1_555
Zn3_4 O4_4 1_555 1_555
O6_4 Zn2_2 1_555 1_555
C4_3 C5_3 1_555 1_555
C7_5 N4 1_555 1_555
H3_5 C7_5 1_555 1_555
Zn2 O1_5 1_555 1_555
O1_5 C1_5 1_555 1_555
O2_5 Zn2 1_555 1_555
O3_5 C2_5 1_555 1_555
O4_5 C6_5 1_555 1_555
N1_5 Zn2 1_555 1_555
N2_5 N1_5 1_555 1_555
C1_5 O2_5 1_555 1_555
C2_5 C1_5 1_555 1_555
C8_5 N1_5 1_555 1_555
H4_5 C8_5 1_555 1_555
Zn3_5 O4_5 1_555 1_555
O6_5 Zn2 1_555 1_555
C7_6 N4_3 1_555 1_555
H3_6 C7_6 1_555 1_555
Zn2_3 O1_6 1_555 1_555
O1_6 C1_6 1_555 1_555
O2_6 Zn2_3 1_555 1_555
O3_6 C2_6 1_555 1_555
O4_6 C6_6 1_555 1_555
N1_6 Zn2_3 1_555 1_555
N2_6 N1_6 1_555 1_555
C1_6 O2_6 1_555 1_555
C2_6 C1_6 1_555 1_555
C8_6 N1_6 1_555 1_555
H4_6 C8_6 1_555 1_555
Zn3_6 O4_6 1_555 1_555
O6_6 Zn2_3 1_555 1_555
Zn1_4 O1_7 1_555 1_555
O1_7 C1_7 1_555 1_555
O2_7 Zn1_4 1_555 1_555
O3_7 C2_7 1_555 1_555
O6_4 C6_7 1_555 1_555
O5_4 C6_7 1_555 1_555
N1_7 Zn1_4 1_555 1_555
N2_7 N1_7 1_555 1_555
N3_4 N2_7 1_555 1_555
C1_7 O2_7 1_555 1_555
C2_7 C1_7 1_555 1_555
C3_4 C2_7 1_555 1_555
H1_4 C3_4 1_555 1_555
C4_4 C3_4 1_555 1_555
H2_4 C4_4 1_555 1_555
C5_4 O3_7 1_555 1_555
C6_7 C5_4 1_555 1_555
C7_7 N3_4 1_555 1_555
H3_7 C7_7 1_555 1_555
C8_7 N1_7 1_555 1_555
H4_7 C8_7 1_555 1_555
O6_7 Zn1_4 1_555 1_555
N4_4 Zn1_4 1_555 1_555
C4_4 C5_4 1_555 1_555
C7_7 C8_7 1_555 1_555
O6_6 C6_8 1_555 1_555
O5_5 C6_8 1_555 1_555
H2_5 C4_5 1_555 1_555
C6_8 C5_5 1_555 1_555
C4_5 C5_5 1_555 1_555
Zn1_5 O1_8 1_555 1_555
O1_8 C1_8 1_555 1_555
O2_8 Zn1_5 1_555 1_555
O3_8 C2_8 1_555 1_555
N1_8 Zn1_5 1_555 1_555
N2_8 N1_8 1_555 1_555
N3_5 N2_8 1_555 1_555
C1_8 O2_8 1_555 1_555
C2_8 C1_8 1_555 1_555
C3_5 C2_8 1_555 1_555
H1_5 C3_5 1_555 1_555
C7_8 N3_5 1_555 1_555
H3_8 C7_8 1_555 1_555
C8_8 N1_8 1_555 1_555
H4_8 C8_8 1_555 1_555
O6_8 Zn1_5 1_555 1_555
N4_5 Zn1_5 1_555 1_555
C7_8 C8_8 1_555 1_555
O6_5 C6_9 1_555 1_555
O5_6 C6_9 1_555 1_555
H2_6 C4_6 1_555 1_555
C6_9 C5_6 1_555 1_555
C4_6 C5_6 1_555 1_555
O6 C6_10 1_555 1_555
O5_7 C6_10 1_555 1_555
H2_7 C4_7 1_555 1_555
C6_10 C5_7 1_555 1_555
C4_7 C5_7 1_555 1_555
O6_3 C6_11 1_555 1_555
O5_8 C6_11 1_555 1_555
H2_8 C4_8 1_555 1_555
C6_11 C5_8 1_555 1_555
C4_8 C5_8 1_555 1_555
Zn2_4 O1_9 1_555 1_555
O1_9 C1_9 1_555 1_555
O2_9 Zn2_4 1_555 1_555
O3_9 C2_9 1_555 1_555
N1_9 Zn2_4 1_555 1_555
N2_9 N1_9 1_555 1_555
N4_4 N2_9 1_555 1_555
C1_9 O2_9 1_555 1_555
C2_9 C1_9 1_555 1_555
C3_6 C2_9 1_555 1_555
H1_6 C3_6 1_555 1_555
C7_9 N4_4 1_555 1_555
H3_9 C7_9 1_555 1_555
C8_9 N1_9 1_555 1_555
H4_9 C8_9 1_555 1_555
O6_9 Zn2_4 1_555 1_555
C7_9 C8_9 1_555 1_555
Zn2_5 O1_10 1_555 1_555
O1_10 C1_10 1_555 1_555
O2_10 Zn2_5 1_555 1_555
O3_10 C2_10 1_555 1_555
O6_2 C6_12 1_555 1_555
O5_9 C6_12 1_555 1_555
N1_10 Zn2_5 1_555 1_555
N2_10 N1_10 1_555 1_555
N4_5 N2_10 1_555 1_555
C1_10 O2_10 1_555 1_555
C2_10 C1_10 1_555 1_555
C3_7 C2_10 1_555 1_555
H1_7 C3_7 1_555 1_555
C4_9 C3_7 1_555 1_555
H2_9 C4_9 1_555 1_555
C5_9 O3_10 1_555 1_555
C6_12 C5_9 1_555 1_555
C7_10 N4_5 1_555 1_555
H3_10 C7_10 1_555 1_555
C8_10 N1_10 1_555 1_555
H4_10 C8_10 1_555 1_555
O6_10 Zn2_5 1_555 1_555
C4_9 C5_9 1_555 1_555
C7_10 C8_10 1_555 1_555
N2_11 N1_11 1_555 1_555
N3_6 N2_11 1_555 1_555
C7_11 N3_6 1_555 1_555
H3_11 C7_11 1_555 1_555
C8_11 N1_11 1_555 1_555
H4_11 C8_11 1_555 1_555
Zn3_3 N3_6 1_555 1_555
C7_11 C8_11 1_555 1_555
Zn3_4 O1_11 1_555 1_555
O1_11 C1_11 1_555 1_555
O2_11 Zn3_4 1_555 1_555
C1_11 O2_11 1_555 1_555
C2_11 C1_11 1_555 1_555
C3_8 C2_11 1_555 1_555
H1_8 C3_8 1_555 1_555
C4_10 C3_8 1_555 1_555
H2_10 C4_10 1_555 1_555
N4_6 Zn3_4 1_555 1_555
O6_10 C6_13 1_555 1_555
O5_10 C6_13 1_555 1_555
C6_13 C5_10 1_555 1_555
N2_12 N1_12 1_555 1_555
N3_7 N2_12 1_555 1_555
C7_12 N3_7 1_555 1_555
H3_12 C7_12 1_555 1_555
C8_12 N1_12 1_555 1_555
H4_12 C8_12 1_555 1_555
Zn3 N3_7 1_555 1_555
C7_12 C8_12 1_555 1_555
Zn3_6 O1_12 1_555 1_555
O1_12 C1_12 1_555 1_555
O2_12 Zn3_6 1_555 1_555
C1_12 O2_12 1_555 1_555
C2_12 C1_12 1_555 1_555
C3_9 C2_12 1_555 1_555
H1_9 C3_9 1_555 1_555
C4_11 C3_9 1_555 1_555
H2_11 C4_11 1_555 1_555
N4_7 Zn3_6 1_555 1_555
O6_9 C6_14 1_555 1_555
O5_11 C6_14 1_555 1_555
N2_13 N1_13 1_555 1_555
N3_8 N2_13 1_555 1_555
C6_14 C5_11 1_555 1_555
C7_13 N3_8 1_555 1_555
H3_13 C7_13 1_555 1_555
C8_13 N1_13 1_555 1_555
H4_13 C8_13 1_555 1_555
Zn3_2 N3_8 1_555 1_555
C7_13 C8_13 1_555 1_555
Zn3_5 O1_13 1_555 1_555
O1_13 C1_13 1_555 1_555
O2_13 Zn3_5 1_555 1_555
O3_11 C2_13 1_555 1_555
C1_13 O2_13 1_555 1_555
C2_13 C1_13 1_555 1_555
C3_10 C2_13 1_555 1_555
H1_10 C3_10 1_555 1_555
C4_12 C3_10 1_555 1_555
H2_12 C4_12 1_555 1_555
N4_8 Zn3_5 1_555 1_555
Zn3 O1_14 1_555 1_555
O1_14 C1_14 1_555 1_555
O2_14 Zn3 1_555 1_555
N1_14 Zn3 1_555 1_555
N2_14 N1_14 1_555 1_555
N4_7 N2_14 1_555 1_555
C1_14 O2_14 1_555 1_555
C2_14 C1_14 1_555 1_555
C3_11 C2_14 1_555 1_555
H1_11 C3_11 1_555 1_555
C4_13 C3_11 1_555 1_555
H2_13 C4_13 1_555 1_555
C7_14 N4_7 1_555 1_555
H3_14 C7_14 1_555 1_555
C8_14 N1_14 1_555 1_555
H4_14 C8_14 1_555 1_555
C7_14 C8_14 1_555 1_555
O6_7 C6_15 1_555 1_555
O5_12 C6_15 1_555 1_555
C5_12 O3_12 1_555 1_555
C6_15 C5_12 1_555 1_555
Zn3_3 O1_15 1_555 1_555
O1_15 C1_15 1_555 1_555
O2_15 Zn3_3 1_555 1_555
O3_13 C2_15 1_555 1_555
O6_8 C6_16 1_555 1_555
O5_13 C6_16 1_555 1_555
N1_15 Zn3_3 1_555 1_555
N2_15 N1_15 1_555 1_555
N4_6 N2_15 1_555 1_555
C1_15 O2_15 1_555 1_555
C2_15 C1_15 1_555 1_555
C3_12 C2_15 1_555 1_555
H1_12 C3_12 1_555 1_555
C4_14 C3_12 1_555 1_555
H2_14 C4_14 1_555 1_555
C5_13 O3_13 1_555 1_555
C6_16 C5_13 1_555 1_555
C7_15 N4_6 1_555 1_555
H3_15 C7_15 1_555 1_555
C8_15 N1_15 1_555 1_555
H4_15 C8_15 1_555 1_555
C4_14 C5_13 1_555 1_555
C7_15 C8_15 1_555 1_555
Zn3_2 O1_16 1_555 1_555
O1_16 C1_16 1_555 1_555
O2_16 Zn3_2 1_555 1_555
N1_16 Zn3_2 1_555 1_555
N2_16 N1_16 1_555 1_555
N4_8 N2_16 1_555 1_555
C1_16 O2_16 1_555 1_555
C2_16 C1_16 1_555 1_555
C3_13 C2_16 1_555 1_555
H1_13 C3_13 1_555 1_555
C4_15 C3_13 1_555 1_555
H2_15 C4_15 1_555 1_555
C7_16 N4_8 1_555 1_555
H3_16 C7_16 1_555 1_555
C8_16 N1_16 1_555 1_555
H4_16 C8_16 1_555 1_555
C7_16 C8_16 1_555 1_555
H1_14 C3_14 1_555 1_555
C4_16 C3_14 1_555 1_555
H2_16 C4_16 1_555 1_555
C4_16 C5_14 1_555 1_555
H1_15 C3_15 1_555 1_555
C4_17 C3_15 1_555 1_555
H2_17 C4_17 1_555 1_555
C4_17 C5_15 1_555 1_555
H1_16 C3_16 1_555 1_555
C4_18 C3_16 1_555 1_555
H2_18 C4_18 1_555 1_555
C4_18 C5_16 1_555 1_555
Zn1_6 O1_17 1_555 1_555
O1_17 C1_17 1_555 1_555
O2_17 Zn1_6 1_555 1_555
O3_14 C2_17 1_555 1_555
N1_17 Zn1_6 1_555 1_555
N2_17 N1_17 1_555 1_555
N3_9 N2_17 1_555 1_555
C1_17 O2_17 1_555 1_555
C2_17 C1_17 1_555 1_555
C3_17 C2_17 1_555 1_555
H1_17 C3_17 1_555 1_555
C7_17 N3_9 1_555 1_555
H3_17 C7_17 1_555 1_555
C8_17 N1_17 1_555 1_555
H4_17 C8_17 1_555 1_555
O6_11 Zn1_6 1_555 1_555
N4_9 Zn1_6 1_555 1_555
C7_17 C8_17 1_555 1_555
Zn2_6 O1_18 1_555 1_555
O1_18 C1_18 1_555 1_555
O2_18 Zn2_6 1_555 1_555
O3_15 C2_18 1_555 1_555
N1_18 Zn2_6 1_555 1_555
N2_18 N1_18 1_555 1_555
N4_9 N2_18 1_555 1_555
C1_18 O2_18 1_555 1_555
C2_18 C1_18 1_555 1_555
C3_18 C2_18 1_555 1_555
H1_18 C3_18 1_555 1_555
C7_18 N4_9 1_555 1_555
H3_18 C7_18 1_555 1_555
C8_18 N1_18 1_555 1_555
H4_18 C8_18 1_555 1_555
O6_12 Zn2_6 1_555 1_555
C7_18 C8_18 1_555 1_555
O6_12 C6_17 1_555 1_555
O5_17 C6_17 1_555 1_555
C6_17 C5_17 1_555 1_555
O6_11 C6_18 1_555 1_555
O5_18 C6_18 1_555 1_555
C5_18 O3_16 1_555 1_555
C6_18 C5_18 1_555 1_555
N5 H5 1_555 1_555
H6 N5 1_555 1_555
C9 N5 1_555 1_555
H7 C9 1_555 1_555
H8 C9 1_555 1_555
H9 C9 1_555 1_555
C10 N5 1_555 1_555
H10 C10 1_555 1_555
H11 C10 1_555 1_555
H12 C10 1_555 1_555
N5_2 H5_2 1_555 1_555
H6_2 N5_2 1_555 1_555
C9_2 N5_2 1_555 1_555
H7_2 C9_2 1_555 1_555
H8_2 C9_2 1_555 1_555
H9_2 C9_2 1_555 1_555
C10_2 N5_2 1_555 1_555
H10_2 C10_2 1_555 1_555
H11_2 C10_2 1_555 1_555
H12_2 C10_2 1_555 1_555
N5_3 H5_3 1_555 1_555
H6_3 N5_3 1_555 1_555
C9_3 N5_3 1_555 1_555
H7_3 C9_3 1_555 1_555
H8_3 C9_3 1_555 1_555
H9_3 C9_3 1_555 1_555
C10_3 N5_3 1_555 1_555
H10_3 C10_3 1_555 1_555
H11_3 C10_3 1_555 1_555
H12_3 C10_3 1_555 1_555
N5_4 H5_4 1_555 1_555
H6_4 N5_4 1_555 1_555
C9_4 N5_4 1_555 1_555
H7_4 C9_4 1_555 1_555
H8_4 C9_4 1_555 1_555
H9_4 C9_4 1_555 1_555
C10_4 N5_4 1_555 1_555
H10_4 C10_4 1_555 1_555
H11_4 C10_4 1_555 1_555
H12_4 C10_4 1_555 1_555
N5_5 H5_5 1_555 1_555
H6_5 N5_5 1_555 1_555
C9_5 N5_5 1_555 1_555
H7_5 C9_5 1_555 1_555
H8_5 C9_5 1_555 1_555
H9_5 C9_5 1_555 1_555
C10_5 N5_5 1_555 1_555
H10_5 C10_5 1_555 1_555
H11_5 C10_5 1_555 1_555
H12_5 C10_5 1_555 1_555
N5_6 H5_6 1_555 1_555
H6_6 N5_6 1_555 1_555
C9_6 N5_6 1_555 1_555
H7_6 C9_6 1_555 1_555
H8_6 C9_6 1_555 1_555
H9_6 C9_6 1_555 1_555
C10_6 N5_6 1_555 1_555
H10_6 C10_6 1_555 1_555
H11_6 C10_6 1_555 1_555
H12_6 C10_6 1_555 1_555
N5_7 H5_7 1_555 1_555
H6_7 N5_7 1_555 1_555
C9_7 N5_7 1_555 1_555
H7_7 C9_7 1_555 1_555
H8_7 C9_7 1_555 1_555
H9_7 C9_7 1_555 1_555
C10_7 N5_7 1_555 1_555
H10_7 C10_7 1_555 1_555
H11_7 C10_7 1_555 1_555
H12_7 C10_7 1_555 1_555
N5_8 H5_8 1_555 1_555
H6_8 N5_8 1_555 1_555
C9_8 N5_8 1_555 1_555
H7_8 C9_8 1_555 1_555
H8_8 C9_8 1_555 1_555
H9_8 C9_8 1_555 1_555
C10_8 N5_8 1_555 1_555
H10_8 C10_8 1_555 1_555
H11_8 C10_8 1_555 1_555
H12_8 C10_8 1_555 1_555
N5_9 H5_9 1_555 1_555
H6_9 N5_9 1_555 1_555
C9_9 N5_9 1_555 1_555
H7_9 C9_9 1_555 1_555
H8_9 C9_9 1_555 1_555
H9_9 C9_9 1_555 1_555
C10_9 N5_9 1_555 1_555
H10_9 C10_9 1_555 1_555
H11_9 C10_9 1_555 1_555
H12_9 C10_9 1_555 1_555
N5_10 H5_10 1_555 1_555
H6_10 N5_10 1_555 1_555
C9_10 N5_10 1_555 1_555
H7_10 C9_10 1_555 1_555
H8_10 C9_10 1_555 1_555
H9_10 C9_10 1_555 1_555
C10_10 N5_10 1_555 1_555
H11_10 C10_10 1_555 1_555
H12_10 C10_10 1_555 1_555
N5_11 H5_11 1_555 1_555
H6_11 N5_11 1_555 1_555
C9_11 N5_11 1_555 1_555
H7_11 C9_11 1_555 1_555
H8_11 C9_11 1_555 1_555
H9_11 C9_11 1_555 1_555
C10_11 N5_11 1_555 1_555
H11_11 C10_11 1_555 1_555
H12_11 C10_11 1_555 1_555
N5_12 H5_12 1_555 1_555
H6_12 N5_12 1_555 1_555
C9_12 N5_12 1_555 1_555
H7_12 C9_12 1_555 1_555
H8_12 C9_12 1_555 1_555
H9_12 C9_12 1_555 1_555
C10_12 N5_12 1_555 1_555
H11_12 C10_12 1_555 1_555
H12_12 C10_12 1_555 1_555
H7_13 C9_13 1_555 1_555
H8_13 C9_13 1_555 1_555
H9_13 C9_13 1_555 1_555
N5_13 H5_13 1_555 1_555
H6_13 N5_13 1_555 1_555
C10_13 N5_13 1_555 1_555
H10_13 C10_13 1_555 1_555
H11_13 C10_13 1_555 1_555
H12_13 C10_13 1_555 1_555
H7_14 C9_14 1_555 1_555
H8_14 C9_14 1_555 1_555
H9_14 C9_14 1_555 1_555
N5_14 H5_14 1_555 1_555
H6_14 N5_14 1_555 1_555
C10_14 N5_14 1_555 1_555
H10_14 C10_14 1_555 1_555
H11_14 C10_14 1_555 1_555
H12_14 C10_14 1_555 1_555
H7_15 C9_15 1_555 1_555
H8_15 C9_15 1_555 1_555
H9_15 C9_15 1_555 1_555
N5_15 H5_15 1_555 1_555
H6_15 N5_15 1_555 1_555
C10_15 N5_15 1_555 1_555
H10_15 C10_15 1_555 1_555
H11_15 C10_15 1_555 1_555
H12_15 C10_15 1_555 1_555
N5_16 H5_16 1_555 1_555
H6_16 N5_16 1_555 1_555
C9_16 N5_16 1_555 1_555
H7_16 C9_16 1_555 1_555
H8_16 C9_16 1_555 1_555
H9_16 C9_16 1_555 1_555
C10_16 N5_16 1_555 1_555
H10_16 C10_16 1_555 1_555
H11_16 C10_16 1_555 1_555
H12_16 C10_16 1_555 1_555
N5_17 H5_17 1_555 1_555
H6_17 N5_17 1_555 1_555
C9_17 N5_17 1_555 1_555
H7_17 C9_17 1_555 1_555
H8_17 C9_17 1_555 1_555
H9_17 C9_17 1_555 1_555
C10_17 N5_17 1_555 1_555
H10_17 C10_17 1_555 1_555
H11_17 C10_17 1_555 1_555
H12_17 C10_17 1_555 1_555
N5_18 H5_18 1_555 1_555
H6_18 N5_18 1_555 1_555
C9_18 N5_18 1_555 1_555
H7_18 C9_18 1_555 1_555
H8_18 C9_18 1_555 1_555
H9_18 C9_18 1_555 1_555
C10_18 N5_18 1_555 1_555
H10_18 C10_18 1_555 1_555
H11_18 C10_18 1_555 1_555
H12_18 C10_18 1_555 1_555

#END
