
###############################################################################
#
# This file contains modified crystal structure data generated from the
# MOF subset of the Cambridge Structural Database (CSD) v542 
# hosted by the Cambridge Crystallographic Data Centre (CCDC).
#
# This work is licensed under the Creative Commons
# Attribution-NonCommercial-ShareAlike 4.0 International License.
# To view a copy of this license, visit
# http://creativecommons.org/licenses/by-nc-sa/4.0/
# or send a letter to
# Creative Commons, PO Box 1866, Mountain View, CA 94042, USA.
#
# CIF created using the CSD Python API on 22 February 2021
# The structure has been converted into the P1 space group
# The structure has a 3D framework
# The original CSD entry HOQTEP is in the monoclinic crystal system
# The framework has been calculated to contain at least 10.0% void space
# The void calculation uses a probe of radius 1.32A, grid spacing 0.4
#
###############################################################################

data_HOQTEP
_chemical_formula_moiety         '(C224 H208 Cd8 N16 O48)n'
_symmetry_cell_setting           triclinic
_symmetry_space_group_name_H-M   'P 1'
_symmetry_Int_Tables_number      1
_space_group_name_Hall           'P 1'
loop_
_symmetry_equiv_pos_site_id
_symmetry_equiv_pos_as_xyz
1 x,y,z
_cell_length_a                   7.8396(4)
_cell_length_b                   29.6217(8)
_cell_length_c                   27.5791(9)
_cell_angle_alpha                90
_cell_angle_beta                 96.206(4)
_cell_angle_gamma                90
_cell_volume                     6366.95
loop_
_atom_site_label
_atom_site_type_symbol
_atom_site_fract_x
_atom_site_fract_y
_atom_site_fract_z
Cd3 Cd 0.17798(7) 0.38215(2) 0.02490(2)
Cd1 Cd 0.17798(7) 0.61785(2) 0.52490(2)
N1 N 0.6654(7) 0.38180(14) 0.71126(16)
O1 O 0.3051(7) 0.54790(15) 0.52980(16)
N2 N 0.6485(8) 0.17965(15) 0.57434(17)
O5 O 0.3135(9) 0.58023(16) 0.60109(19)
O6 O 0.4298(8) 0.6536(2) 0.5074(2)
C1 C 0.6035(8) 0.38049(16) 0.66430(19)
C2 C 0.7213(7) 0.34338(17) 0.73311(18)
C3 C 0.5967(8) 0.34076(18) 0.63710(19)
H3 H 0.553588 0.340924 0.604330
C4 C 0.6551(7) 0.30108(17) 0.65957(18)
C5 C 0.7945(7) 0.34739(18) 0.78520(18)
C6 C 0.5408(8) 0.42403(17) 0.64151(19)
C7 C 0.7191(8) 0.30240(18) 0.70855(19)
H4 H 0.759842 0.276299 0.724609
C8 C 0.6527(8) 0.25836(18) 0.63029(19)
C9 C 0.4125(9) 0.50449(19) 0.5989(2)
C10 C 0.9407(8) 0.3589(2) 0.88156(19)
C11 C 0.4659(10) 0.4703(2) 0.5705(2)
H5 H 0.455936 0.473630 0.536797
C12 C 0.5349(9) 0.43062(19) 0.5914(2)
H6 H 0.576946 0.408533 0.571915
C13 C 0.3383(9) 0.5470(2) 0.5752(2)
C14 C 0.8087(10) 0.3115(2) 0.8172(2)
H7 H 0.770357 0.283070 0.806576
C16 C 0.8790(10) 0.3173(2) 0.8647(2)
H8 H 0.885308 0.292787 0.885885
C17 C 0.6771(9) 0.25981(19) 0.5810(2)
H9 H 0.697281 0.287073 0.565929
C18 C 0.4235(11) 0.4986(2) 0.6483(2)
H10 H 0.387803 0.521629 0.667707
C19 C 0.4872(10) 0.4587(2) 0.6702(2)
H11 H 0.493752 0.455285 0.703834
C20 C 0.6707(10) 0.2198(2) 0.5552(2)
H12 H 0.682760 0.221293 0.522052
C21 C 0.9279(12) 0.3943(2) 0.8497(2)
H13 H 0.967859 0.422588 0.860353
C22 C 0.8574(12) 0.3891(2) 0.8023(2)
H14 H 0.851497 0.413772 0.781309
C23 C 0.6255(12) 0.1781(2) 0.6211(2)
H15 H 0.609939 0.150082 0.635130
C24 C 0.6233(12) 0.2166(2) 0.6507(2)
H16 H 0.602764 0.214258 0.683220
C25 C 0.5790(15) 0.6453(4) 0.5112(5)
H17 H 0.600064 0.631860 0.480315
H18 H 0.595433 0.621376 0.535217
C26 C 0.7047(12) 0.6732(6) 0.5220(5)
H19 H 0.714238 0.679853 0.556279
H20 H 0.683355 0.700649 0.503793
H21 H 0.809688 0.659890 0.514004
Cd2 Cd 0.67798(7) 0.11785(2) 0.52490(2)
O7 O 0.0262(8) 0.66672(18) 0.46257(16)
N3 N 0.1485(8) 0.67965(15) 0.57434(17)
O8 O 0.0815(8) 0.59647(18) 0.44563(16)
Cd3_2 Cd 0.67798(7) 0.88215(2) 0.02490(2)
N1_2 N 0.1654(7) 0.88180(14) 0.71126(16)
O2 O 0.5262(8) 0.83328(18) 0.96257(16)
O4 O 0.5815(8) 0.90353(18) 0.94563(16)
C1_2 C 0.1035(8) 0.88049(16) 0.66430(19)
C2_2 C 0.2213(7) 0.84338(17) 0.73311(18)
C3_2 C 0.0967(8) 0.84076(18) 0.63710(19)
H3_2 H 0.053588 0.840924 0.604330
C4_2 C 0.1551(7) 0.80108(17) 0.65957(18)
C5_2 C 0.2945(7) 0.84739(18) 0.78520(18)
C6_2 C 0.0408(8) 0.92403(17) 0.64151(19)
C7_2 C 0.2191(8) 0.80240(18) 0.70855(19)
H4_2 H 0.259842 0.776299 0.724609
C8_2 C 0.1527(8) 0.75836(18) 0.63029(19)
C10_2 C 0.4407(8) 0.8589(2) 0.88156(19)
C12_2 C 0.0349(9) 0.93062(19) 0.5914(2)
H6_2 H 0.076946 0.908533 0.571915
C14_2 C 0.3087(10) 0.8115(2) 0.8172(2)
H7_2 H 0.270357 0.783070 0.806576
C15 C 0.5184(9) 0.8650(3) 0.9331(2)
C16_2 C 0.3790(10) 0.8173(2) 0.8647(2)
H8_2 H 0.385308 0.792787 0.885885
C17_2 C 0.1771(9) 0.75981(19) 0.5810(2)
H9_2 H 0.197281 0.787073 0.565929
C20_2 C 0.1707(10) 0.7198(2) 0.5552(2)
H12_2 H 0.182760 0.721293 0.522052
C21_2 C 0.4279(12) 0.8943(2) 0.8497(2)
H13_2 H 0.467859 0.922588 0.860353
C22_2 C 0.3574(12) 0.8891(2) 0.8023(2)
H14_2 H 0.351497 0.913772 0.781309
C23_2 C 0.1255(12) 0.6781(2) 0.6211(2)
H15_2 H 0.109939 0.650082 0.635130
C24_2 C 0.1233(12) 0.7166(2) 0.6507(2)
H16_2 H 0.102764 0.714258 0.683220
O1_2 O 0.8051(7) 0.04790(15) 0.52980(16)
O3 O 0.4284(8) 0.08424(17) 0.5482(2)
O5_2 O 0.8135(9) 0.08023(16) 0.60109(19)
O6_2 O 0.9298(8) 0.1536(2) 0.5074(2)
C9_2 C 0.9125(9) 0.00449(19) 0.5989(2)
C13_2 C 0.8383(9) 0.0470(2) 0.5752(2)
H10_2 H 0.887803 0.021629 0.667707
C27 C 0.3752(13) 0.0107(2) 0.5697(6)
H23 H 0.361096 0.024462 0.600521
C28 C 0.3869(13) 0.0456(4) 0.5332(4)
H25 H 0.469550 0.035806 0.511652
H26 H 0.276386 0.047687 0.513792
O7_2 O 0.5262(8) 0.16672(18) 0.46257(16)
O8_2 O 0.5815(8) 0.09647(18) 0.44563(16)
C15_2 C 0.0184(9) 0.6350(3) 0.4331(2)
N1_3 N 0.6654(7) 0.61820(14) 0.21126(16)
O1_3 O 0.3051(7) 0.45210(15) 0.02980(16)
N2_2 N 0.6485(8) 0.82035(15) 0.07434(17)
O5_3 O 0.3135(9) 0.41977(16) 0.10109(19)
O6_3 O 0.4298(8) 0.3464(2) 0.0074(2)
C1_3 C 0.6035(8) 0.61951(16) 0.16430(19)
C2_3 C 0.7213(7) 0.65662(17) 0.23311(18)
C3_3 C 0.5967(8) 0.65924(18) 0.13710(19)
H3_3 H 0.553588 0.659076 0.104330
C4_3 C 0.6551(7) 0.69892(17) 0.15957(18)
C5_3 C 0.7945(7) 0.65261(18) 0.28520(18)
C6_3 C 0.5408(8) 0.57597(17) 0.14151(19)
C7_3 C 0.7191(8) 0.69760(18) 0.20855(19)
H4_3 H 0.759842 0.723701 0.224609
C8_3 C 0.6527(8) 0.74164(18) 0.13029(19)
C9_3 C 0.4125(9) 0.49551(19) 0.0989(2)
C10_3 C 0.9407(8) 0.6411(2) 0.38156(19)
C11_2 C 0.4659(10) 0.5297(2) 0.0705(2)
H5_2 H 0.455936 0.526370 0.036797
C12_3 C 0.5349(9) 0.56938(19) 0.0914(2)
H6_3 H 0.576946 0.591467 0.071915
C13_3 C 0.3383(9) 0.4530(2) 0.0752(2)
C14_3 C 0.8087(10) 0.6885(2) 0.3172(2)
H7_3 H 0.770357 0.716930 0.306576
C16_3 C 0.8790(10) 0.6827(2) 0.3647(2)
H8_3 H 0.885308 0.707213 0.385885
C17_3 C 0.6771(9) 0.74019(19) 0.0810(2)
H9_3 H 0.697281 0.712927 0.065929
C18_2 C 0.4235(11) 0.5014(2) 0.1483(2)
H10_3 H 0.387803 0.478371 0.167707
C19_2 C 0.4872(10) 0.5413(2) 0.1702(2)
H11_2 H 0.493752 0.544715 0.203834
C20_3 C 0.6707(10) 0.7802(2) 0.0552(2)
H12_3 H 0.682760 0.778707 0.022052
C21_3 C 0.9279(12) 0.6057(2) 0.3497(2)
H13_3 H 0.967859 0.577412 0.360353
C22_3 C 0.8574(12) 0.6109(2) 0.3023(2)
H14_3 H 0.851497 0.586228 0.281309
C23_3 C 0.6255(12) 0.8219(2) 0.1211(2)
H15_3 H 0.609939 0.849918 0.135130
C24_3 C 0.6233(12) 0.7834(2) 0.1507(2)
H16_3 H 0.602764 0.785742 0.183220
C25_2 C 0.5790(15) 0.3547(4) 0.0112(5)
H18_2 H 0.595433 0.378624 0.035217
C26_2 C 0.7047(12) 0.3268(6) 0.0220(5)
H19_2 H 0.714238 0.320147 0.056279
H20_2 H 0.683355 0.299351 0.003793
H21_2 H 0.809688 0.340110 0.014004
N3_2 N 0.1485(8) 0.32035(15) 0.07434(17)
N1_4 N 0.1654(7) 0.11820(14) 0.21126(16)
C1_4 C 0.1035(8) 0.11951(16) 0.16430(19)
C2_4 C 0.2213(7) 0.15662(17) 0.23311(18)
C3_4 C 0.0967(8) 0.15924(18) 0.13710(19)
H3_4 H 0.053588 0.159076 0.104330
C4_4 C 0.1551(7) 0.19892(17) 0.15957(18)
C5_4 C 0.2945(7) 0.15261(18) 0.28520(18)
C6_4 C 0.0408(8) 0.07597(17) 0.14151(19)
C7_4 C 0.2191(8) 0.19760(18) 0.20855(19)
H4_4 H 0.259842 0.223701 0.224609
C8_4 C 0.1527(8) 0.24164(18) 0.13029(19)
C10_4 C 0.4407(8) 0.1411(2) 0.38156(19)
C12_4 C 0.0349(9) 0.06938(19) 0.0914(2)
H6_4 H 0.076946 0.091467 0.071915
C14_4 C 0.3087(10) 0.1885(2) 0.3172(2)
H7_4 H 0.270357 0.216930 0.306576
C15_3 C 0.5184(9) 0.1350(3) 0.4331(2)
C16_4 C 0.3790(10) 0.1827(2) 0.3647(2)
H8_4 H 0.385308 0.207213 0.385885
C17_4 C 0.1771(9) 0.24019(19) 0.0810(2)
H9_4 H 0.197281 0.212927 0.065929
C20_4 C 0.1707(10) 0.2802(2) 0.0552(2)
H12_4 H 0.182760 0.278707 0.022052
C21_4 C 0.4279(12) 0.1057(2) 0.3497(2)
H13_4 H 0.467859 0.077412 0.360353
C22_4 C 0.3574(12) 0.1109(2) 0.3023(2)
H14_4 H 0.351497 0.086228 0.281309
C23_4 C 0.1255(12) 0.3219(2) 0.1211(2)
H15_4 H 0.109939 0.349918 0.135130
C24_4 C 0.1233(12) 0.2834(2) 0.1507(2)
H16_4 H 0.102764 0.285742 0.183220
O1_4 O 0.8051(7) 0.95210(15) 0.02980(16)
O3_2 O 0.4284(8) 0.91576(17) 0.0482(2)
O5_4 O 0.8135(9) 0.91977(16) 0.10109(19)
O6_4 O 0.9298(8) 0.8464(2) 0.0074(2)
C9_4 C 0.9125(9) 0.99551(19) 0.0989(2)
C13_4 C 0.8383(9) 0.9530(2) 0.0752(2)
H10_4 H 0.887803 0.978371 0.167707
C27_2 C 0.3752(13) 0.9893(2) 0.0697(6)
H23_2 H 0.361096 0.975538 0.100521
C28_2 C 0.3869(13) 0.9544(4) 0.0332(4)
H25_2 H 0.469550 0.964194 0.011652
H26_2 H 0.276386 0.952313 0.013792
O2_2 O 0.0262(8) 0.33328(18) 0.96257(16)
O4_2 O 0.0815(8) 0.40353(18) 0.94563(16)
C15_4 C 0.0184(9) 0.3650(3) 0.9331(2)
H17_2 H 0.600064 0.368140 0.980315
O3_3 O 0.9284(8) 0.58424(17) 0.5482(2)
C27_3 C 0.8752(13) 0.5107(2) 0.5697(6)
H22 H 0.778459 0.491621 0.560013
H23_3 H 0.861096 0.524462 0.600521
H24 H 0.978219 0.492943 0.572663
C28_3 C 0.8869(13) 0.5456(4) 0.5332(4)
H25_3 H 0.969550 0.535806 0.511652
H26_3 H 0.776386 0.547687 0.513792
O3_4 O 0.0716(8) 0.58424(17) 0.9518(2)
C27_4 C 0.1248(13) 0.5107(2) 0.9303(6)
H22_2 H 0.221541 0.491621 0.939987
H23_4 H 0.138904 0.524462 0.899479
H24_2 H 0.021781 0.492943 0.927337
C28_4 C 0.1131(13) 0.5456(4) 0.9668(4)
H25_4 H 0.030450 0.535806 0.988348
H26_4 H 0.223614 0.547687 0.986208
H17_3 H 0.399936 0.631860 0.019685
O7_3 O 0.9738(8) 0.66672(18) 0.03743(16)
O8_3 O 0.9185(8) 0.59647(18) 0.05437(16)
C15_5 C 0.9816(9) 0.6350(3) 0.0669(2)
Cd1_2 Cd 0.82202(7) 0.61785(2) 0.97510(2)
N1_5 N 0.3346(7) 0.38180(14) 0.78874(16)
O1_5 O 0.6949(7) 0.54790(15) 0.97020(16)
N2_3 N 0.3515(8) 0.17965(15) 0.92566(17)
O5_5 O 0.6865(9) 0.58023(16) 0.89891(19)
O6_5 O 0.5702(8) 0.6536(2) 0.9926(2)
C1_5 C 0.3965(8) 0.38049(16) 0.83570(19)
C2_5 C 0.2787(7) 0.34338(17) 0.76689(18)
C3_5 C 0.4033(8) 0.34076(18) 0.86290(19)
H3_5 H 0.446412 0.340924 0.895670
C4_5 C 0.3449(7) 0.30108(17) 0.84043(18)
C5_5 C 0.2055(7) 0.34739(18) 0.71480(18)
C6_5 C 0.4592(8) 0.42403(17) 0.85849(19)
C7_5 C 0.2809(8) 0.30240(18) 0.79145(19)
H4_5 H 0.240158 0.276299 0.775391
C8_5 C 0.3473(8) 0.25836(18) 0.86971(19)
C9_5 C 0.5875(9) 0.50449(19) 0.9011(2)
C10_5 C 0.0593(8) 0.3589(2) 0.61844(19)
C11_3 C 0.5341(10) 0.4703(2) 0.9295(2)
H5_3 H 0.544064 0.473630 0.963203
C12_5 C 0.4651(9) 0.43062(19) 0.9086(2)
H6_5 H 0.423054 0.408533 0.928085
C13_5 C 0.6617(9) 0.5470(2) 0.9248(2)
C14_5 C 0.1913(10) 0.3115(2) 0.6828(2)
H7_5 H 0.229643 0.283070 0.693424
C16_5 C 0.1210(10) 0.3173(2) 0.6353(2)
H8_5 H 0.114692 0.292787 0.614115
C17_5 C 0.3229(9) 0.25981(19) 0.9190(2)
H9_5 H 0.302719 0.287073 0.934071
C18_3 C 0.5765(11) 0.4986(2) 0.8517(2)
H10_5 H 0.612197 0.521629 0.832293
C19_3 C 0.5128(10) 0.4587(2) 0.8298(2)
H11_3 H 0.506248 0.455285 0.796166
C20_5 C 0.3293(10) 0.2198(2) 0.9448(2)
H12_5 H 0.317240 0.221293 0.977948
C21_5 C 0.0721(12) 0.3943(2) 0.6503(2)
H13_5 H 0.032141 0.422588 0.639647
C22_5 C 0.1426(12) 0.3891(2) 0.6977(2)
H14_5 H 0.148503 0.413772 0.718691
C23_5 C 0.3745(12) 0.1781(2) 0.8789(2)
H15_5 H 0.390061 0.150082 0.864870
C24_5 C 0.3767(12) 0.2166(2) 0.8493(2)
H16_5 H 0.397236 0.214258 0.816780
C25_3 C 0.4210(15) 0.6453(4) 0.9888(5)
H18_3 H 0.404567 0.621376 0.964783
C26_3 C 0.2953(12) 0.6732(6) 0.9780(5)
H19_3 H 0.285762 0.679853 0.943721
H20_3 H 0.316645 0.700649 0.996207
H21_3 H 0.190312 0.659890 0.985996
Cd2_2 Cd 0.32202(7) 0.11785(2) 0.97510(2)
N3_3 N 0.8515(8) 0.67965(15) 0.92566(17)
O2_3 O 0.9738(8) 0.33328(18) 0.53743(16)
O4_3 O 0.9185(8) 0.40353(18) 0.55437(16)
C15_6 C 0.9816(9) 0.3650(3) 0.5669(2)
Cd3_3 Cd 0.82202(7) 0.38215(2) 0.47510(2)
O7_4 O 0.4738(8) 0.16672(18) 0.03743(16)
O8_4 O 0.4185(8) 0.09647(18) 0.05437(16)
O1_6 O 0.1949(7) 0.04790(15) 0.97020(16)
O3_5 O 0.5716(8) 0.08424(17) 0.9518(2)
O5_6 O 0.1865(9) 0.08023(16) 0.89891(19)
O6_6 O 0.0702(8) 0.1536(2) 0.9926(2)
C9_6 C 0.0875(9) 0.00449(19) 0.9011(2)
C13_6 C 0.1617(9) 0.0470(2) 0.9248(2)
H10_6 H 0.112197 0.021629 0.832293
C27_5 C 0.6248(13) 0.0107(2) 0.9303(6)
H23_5 H 0.638904 0.024462 0.899479
C28_5 C 0.6131(13) 0.0456(4) 0.9668(4)
H25_5 H 0.530450 0.035806 0.988348
H26_5 H 0.723614 0.047687 0.986208
N1_6 N 0.8346(7) 0.88180(14) 0.78874(16)
O2_4 O 0.4738(8) 0.83328(18) 0.53743(16)
O4_4 O 0.4185(8) 0.90353(18) 0.55437(16)
C1_6 C 0.8965(8) 0.88049(16) 0.83570(19)
C2_6 C 0.7787(7) 0.84338(17) 0.76689(18)
C3_6 C 0.9033(8) 0.84076(18) 0.86290(19)
H3_6 H 0.946412 0.840924 0.895670
C4_6 C 0.8449(7) 0.80108(17) 0.84043(18)
C5_6 C 0.7055(7) 0.84739(18) 0.71480(18)
C6_6 C 0.9592(8) 0.92403(17) 0.85849(19)
C7_6 C 0.7809(8) 0.80240(18) 0.79145(19)
H4_6 H 0.740158 0.776299 0.775391
C8_6 C 0.8473(8) 0.75836(18) 0.86971(19)
C10_6 C 0.5593(8) 0.8589(2) 0.61844(19)
C12_6 C 0.9651(9) 0.93062(19) 0.9086(2)
H6_6 H 0.923054 0.908533 0.928085
C14_6 C 0.6913(10) 0.8115(2) 0.6828(2)
H7_6 H 0.729643 0.783070 0.693424
C15_7 C 0.4816(9) 0.8650(3) 0.5669(2)
C16_6 C 0.6210(10) 0.8173(2) 0.6353(2)
H8_6 H 0.614692 0.792787 0.614115
C17_6 C 0.8229(9) 0.75981(19) 0.9190(2)
H9_6 H 0.802719 0.787073 0.934071
C20_6 C 0.8293(10) 0.7198(2) 0.9448(2)
H12_6 H 0.817240 0.721293 0.977948
C21_6 C 0.5721(12) 0.8943(2) 0.6503(2)
H13_6 H 0.532141 0.922588 0.639647
C22_6 C 0.6426(12) 0.8891(2) 0.6977(2)
H14_6 H 0.648503 0.913772 0.718691
C23_6 C 0.8745(12) 0.6781(2) 0.8789(2)
H15_6 H 0.890061 0.650082 0.864870
C24_6 C 0.8767(12) 0.7166(2) 0.8493(2)
H16_6 H 0.897236 0.714258 0.816780
Cd3_4 Cd 0.32202(7) 0.88215(2) 0.47510(2)
N1_7 N 0.3346(7) 0.61820(14) 0.28874(16)
O1_7 O 0.6949(7) 0.45210(15) 0.47020(16)
N2_4 N 0.3515(8) 0.82035(15) 0.42566(17)
O5_7 O 0.6865(9) 0.41977(16) 0.39891(19)
O6_7 O 0.5702(8) 0.3464(2) 0.4926(2)
C1_7 C 0.3965(8) 0.61951(16) 0.33570(19)
C2_7 C 0.2787(7) 0.65662(17) 0.26689(18)
C3_7 C 0.4033(8) 0.65924(18) 0.36290(19)
H3_7 H 0.446412 0.659076 0.395670
C4_7 C 0.3449(7) 0.69892(17) 0.34043(18)
C5_7 C 0.2055(7) 0.65261(18) 0.21480(18)
C6_7 C 0.4592(8) 0.57597(17) 0.35849(19)
C7_7 C 0.2809(8) 0.69760(18) 0.29145(19)
H4_7 H 0.240158 0.723701 0.275391
C8_7 C 0.3473(8) 0.74164(18) 0.36971(19)
C9_7 C 0.5875(9) 0.49551(19) 0.4011(2)
C10_7 C 0.0593(8) 0.6411(2) 0.11844(19)
C11_4 C 0.5341(10) 0.5297(2) 0.4295(2)
H5_4 H 0.544064 0.526370 0.463203
C12_7 C 0.4651(9) 0.56938(19) 0.4086(2)
H6_7 H 0.423054 0.591467 0.428085
C13_7 C 0.6617(9) 0.4530(2) 0.4248(2)
C14_7 C 0.1913(10) 0.6885(2) 0.1828(2)
H7_7 H 0.229643 0.716930 0.193424
C16_7 C 0.1210(10) 0.6827(2) 0.1353(2)
H8_7 H 0.114692 0.707213 0.114115
C17_7 C 0.3229(9) 0.74019(19) 0.4190(2)
H9_7 H 0.302719 0.712927 0.434071
C18_4 C 0.5765(11) 0.5014(2) 0.3517(2)
H10_7 H 0.612197 0.478371 0.332293
C19_4 C 0.5128(10) 0.5413(2) 0.3298(2)
H11_4 H 0.506248 0.544715 0.296166
C20_7 C 0.3293(10) 0.7802(2) 0.4448(2)
H12_7 H 0.317240 0.778707 0.477948
C21_7 C 0.0721(12) 0.6057(2) 0.1503(2)
H13_7 H 0.032141 0.577412 0.139647
C22_7 C 0.1426(12) 0.6109(2) 0.1977(2)
H14_7 H 0.148503 0.586228 0.218691
C23_7 C 0.3745(12) 0.8219(2) 0.3789(2)
H15_7 H 0.390061 0.849918 0.364870
C24_7 C 0.3767(12) 0.7834(2) 0.3493(2)
H16_7 H 0.397236 0.785742 0.316780
C25_4 C 0.4210(15) 0.3547(4) 0.4888(5)
H17_4 H 0.399936 0.368140 0.519685
H18_4 H 0.404567 0.378624 0.464783
C26_4 C 0.2953(12) 0.3268(6) 0.4780(5)
H19_4 H 0.285762 0.320147 0.443721
H20_4 H 0.316645 0.299351 0.496207
H21_4 H 0.190312 0.340110 0.485996
N3_4 N 0.8515(8) 0.32035(15) 0.42566(17)
O1_8 O 0.1949(7) 0.95210(15) 0.47020(16)
O3_6 O 0.5716(8) 0.91576(17) 0.4518(2)
O5_8 O 0.1865(9) 0.91977(16) 0.39891(19)
O6_8 O 0.0702(8) 0.8464(2) 0.4926(2)
C9_8 C 0.0875(9) 0.99551(19) 0.4011(2)
C13_8 C 0.1617(9) 0.9530(2) 0.4248(2)
H10_8 H 0.112197 0.978371 0.332293
C27_6 C 0.6248(13) 0.9893(2) 0.4303(6)
H23_6 H 0.638904 0.975538 0.399479
C28_6 C 0.6131(13) 0.9544(4) 0.4668(4)
H25_6 H 0.530450 0.964194 0.488348
H26_6 H 0.723614 0.952313 0.486208
N1_8 N 0.8346(7) 0.11820(14) 0.28874(16)
C1_8 C 0.8965(8) 0.11951(16) 0.33570(19)
C2_8 C 0.7787(7) 0.15662(17) 0.26689(18)
C3_8 C 0.9033(8) 0.15924(18) 0.36290(19)
H3_8 H 0.946412 0.159076 0.395670
C4_8 C 0.8449(7) 0.19892(17) 0.34043(18)
C5_8 C 0.7055(7) 0.15261(18) 0.21480(18)
C6_8 C 0.9592(8) 0.07597(17) 0.35849(19)
C7_8 C 0.7809(8) 0.19760(18) 0.29145(19)
H4_8 H 0.740158 0.223701 0.275391
C8_8 C 0.8473(8) 0.24164(18) 0.36971(19)
C10_8 C 0.5593(8) 0.1411(2) 0.11844(19)
C12_8 C 0.9651(9) 0.06938(19) 0.4086(2)
H6_8 H 0.923054 0.091467 0.428085
C14_8 C 0.6913(10) 0.1885(2) 0.1828(2)
H7_8 H 0.729643 0.216930 0.193424
C15_8 C 0.4816(9) 0.1350(3) 0.0669(2)
C16_8 C 0.6210(10) 0.1827(2) 0.1353(2)
H8_8 H 0.614692 0.207213 0.114115
C17_8 C 0.8229(9) 0.24019(19) 0.4190(2)
H9_8 H 0.802719 0.212927 0.434071
C20_8 C 0.8293(10) 0.2802(2) 0.4448(2)
H12_8 H 0.817240 0.278707 0.477948
C21_8 C 0.5721(12) 0.1057(2) 0.1503(2)
H13_8 H 0.532141 0.077412 0.139647
C22_8 C 0.6426(12) 0.1109(2) 0.1977(2)
H14_8 H 0.648503 0.086228 0.218691
C23_8 C 0.8745(12) 0.3219(2) 0.3789(2)
H15_8 H 0.890061 0.349918 0.364870
C24_8 C 0.8767(12) 0.2834(2) 0.3493(2)
H16_8 H 0.897236 0.285742 0.316780
C25_5 C 0.0790(15) 0.1453(4) 0.5112(5)
H17_5 H 0.100064 0.131860 0.480315
H18_5 H 0.095433 0.121376 0.535217
C26_5 C 0.2047(12) 0.1732(6) 0.5220(5)
H19_5 H 0.214238 0.179853 0.556279
H20_5 H 0.183355 0.200649 0.503793
H21_5 H 0.309688 0.159890 0.514004
C11_5 C 0.9659(10) 0.9703(2) 0.5705(2)
H5_5 H 0.955936 0.973630 0.536797
C18_5 C 0.9235(11) 0.9986(2) 0.6483(2)
C19_5 C 0.9872(10) 0.9587(2) 0.6702(2)
H11_5 H 0.993752 0.955285 0.703834
H22_3 H 0.278459 0.991621 0.560013
H24_3 H 0.478219 0.992943 0.572663
C11_6 C 0.0341(10) 0.9703(2) 0.9295(2)
H5_6 H 0.044064 0.973630 0.963203
C18_6 C 0.0765(11) 0.9986(2) 0.8517(2)
C19_6 C 0.0128(10) 0.9587(2) 0.8298(2)
H11_6 H 0.006248 0.955285 0.796166
H22_4 H 0.721541 0.991621 0.939987
H24_4 H 0.521781 0.992943 0.927337
H17_6 H 0.899936 0.131860 0.019685
C25_6 C 0.9210(15) 0.1453(4) 0.9888(5)
H18_6 H 0.904567 0.121376 0.964783
C26_6 C 0.7953(12) 0.1732(6) 0.9780(5)
H19_6 H 0.785762 0.179853 0.943721
H20_6 H 0.816645 0.200649 0.996207
H21_6 H 0.690312 0.159890 0.985996
O3_7 O 0.0716(8) 0.41576(17) 0.4518(2)
C27_7 C 0.1248(13) 0.4893(2) 0.4303(6)
H22_5 H 0.221541 0.508379 0.439987
H23_7 H 0.138904 0.475538 0.399479
H24_5 H 0.021781 0.507057 0.427337
C28_7 C 0.1131(13) 0.4544(4) 0.4668(4)
H25_7 H 0.030450 0.464194 0.488348
H26_7 H 0.223614 0.452313 0.486208
O3_8 O 0.9284(8) 0.41576(17) 0.0482(2)
C27_8 C 0.8752(13) 0.4893(2) 0.0697(6)
H22_6 H 0.778459 0.508379 0.060013
H23_8 H 0.861096 0.475538 0.100521
H24_6 H 0.978219 0.507057 0.072663
C28_8 C 0.8869(13) 0.4544(4) 0.0332(4)
H25_8 H 0.969550 0.464194 0.011652
H26_8 H 0.776386 0.452313 0.013792
C11_7 C 0.0341(10) 0.0297(2) 0.4295(2)
H5_7 H 0.044064 0.026370 0.463203
C18_7 C 0.0765(11) 0.0014(2) 0.3517(2)
C19_7 C 0.0128(10) 0.0413(2) 0.3298(2)
H11_7 H 0.006248 0.044715 0.296166
H22_7 H 0.721541 0.008379 0.439987
H24_7 H 0.521781 0.007057 0.427337
C25_7 C 0.9210(15) 0.8547(4) 0.4888(5)
H17_7 H 0.899936 0.868140 0.519685
H18_7 H 0.904567 0.878624 0.464783
C26_7 C 0.7953(12) 0.8268(6) 0.4780(5)
H19_7 H 0.785762 0.820147 0.443721
H20_7 H 0.816645 0.799351 0.496207
H21_7 H 0.690312 0.840110 0.485996
C25_8 C 0.0790(15) 0.8547(4) 0.0112(5)
H18_8 H 0.095433 0.878624 0.035217
C26_8 C 0.2047(12) 0.8268(6) 0.0220(5)
H19_8 H 0.214238 0.820147 0.056279
H20_8 H 0.183355 0.799351 0.003793
H21_8 H 0.309688 0.840110 0.014004
H17_8 H 0.100064 0.868140 0.980315
C11_8 C 0.9659(10) 0.0297(2) 0.0705(2)
H5_8 H 0.955936 0.026370 0.036797
C18_8 C 0.9235(11) 0.0014(2) 0.1483(2)
C19_8 C 0.9872(10) 0.0413(2) 0.1702(2)
H11_8 H 0.993752 0.044715 0.203834
H22_8 H 0.278459 0.008379 0.060013
H24_8 H 0.478219 0.007057 0.072663
loop_
_geom_bond_atom_site_label_1
_geom_bond_atom_site_label_2
_geom_bond_site_symmetry_1
_geom_bond_site_symmetry_2
Cd1 O1 1_555 1_555
N1 C1 1_555 1_555
O1 C13 1_555 1_555
N2 C20 1_555 1_555
O5 Cd1 1_555 1_555
O6 Cd1 1_555 1_555
C1 C3 1_555 1_555
C2 N1 1_555 1_555
C3 H3 1_555 1_555
C4 C3 1_555 1_555
C5 C2 1_555 1_555
C6 C1 1_555 1_555
C7 C2 1_555 1_555
H4 C7 1_555 1_555
C8 C4 1_555 1_555
C9 C11 1_555 1_555
C11 H5 1_555 1_555
C12 C6 1_555 1_555
H6 C12 1_555 1_555
C13 O5 1_555 1_555
C14 C5 1_555 1_555
H7 C14 1_555 1_555
C16 C10 1_555 1_555
H8 C16 1_555 1_555
C17 C8 1_555 1_555
H9 C17 1_555 1_555
C18 C9 1_555 1_555
H10 C18 1_555 1_555
C19 C6 1_555 1_555
H11 C19 1_555 1_555
C20 C17 1_555 1_555
H12 C20 1_555 1_555
C21 C10 1_555 1_555
H13 C21 1_555 1_555
C22 C5 1_555 1_555
H14 C22 1_555 1_555
C23 N2 1_555 1_555
H15 C23 1_555 1_555
C24 C8 1_555 1_555
H16 C24 1_555 1_555
C25 O6 1_555 1_555
H17 C25 1_555 1_555
H18 C25 1_555 1_555
C26 C25 1_555 1_555
H19 C26 1_555 1_555
H20 C26 1_555 1_555
H21 C26 1_555 1_555
Cd2 N2 1_555 1_555
O7 Cd1 1_555 1_555
N3 Cd1 1_555 1_555
O8 Cd1 1_555 1_555
C4 C7 1_555 1_555
C9 C13 1_555 1_555
C11 C12 1_555 1_555
C14 C16 1_555 1_555
C18 C19 1_555 1_555
C21 C22 1_555 1_555
C23 C24 1_555 1_555
N1_2 C1_2 1_555 1_555
O2 C15 1_555 1_555
N3 C20_2 1_555 1_555
O4 C15 1_555 1_555
C1_2 C3_2 1_555 1_555
C2_2 N1_2 1_555 1_555
C3_2 H3_2 1_555 1_555
C4_2 C3_2 1_555 1_555
C5_2 C2_2 1_555 1_555
C6_2 C1_2 1_555 1_555
C7_2 C2_2 1_555 1_555
H4_2 C7_2 1_555 1_555
C8_2 C4_2 1_555 1_555
C10_2 C15 1_555 1_555
C12_2 C6_2 1_555 1_555
H6_2 C12_2 1_555 1_555
C14_2 C5_2 1_555 1_555
H7_2 C14_2 1_555 1_555
C16_2 C10_2 1_555 1_555
H8_2 C16_2 1_555 1_555
C17_2 C8_2 1_555 1_555
H9_2 C17_2 1_555 1_555
C20_2 C17_2 1_555 1_555
H12_2 C20_2 1_555 1_555
C21_2 C10_2 1_555 1_555
H13_2 C21_2 1_555 1_555
C22_2 C5_2 1_555 1_555
H14_2 C22_2 1_555 1_555
C23_2 N3 1_555 1_555
H15_2 C23_2 1_555 1_555
C24_2 C8_2 1_555 1_555
H16_2 C24_2 1_555 1_555
C4_2 C7_2 1_555 1_555
C14_2 C16_2 1_555 1_555
C21_2 C22_2 1_555 1_555
C23_2 C24_2 1_555 1_555
Cd2 O1_2 1_555 1_555
O1_2 C13_2 1_555 1_555
O3 Cd2 1_555 1_555
O5_2 Cd2 1_555 1_555
O6_2 Cd2 1_555 1_555
C13_2 O5_2 1_555 1_555
H23 C27 1_555 1_555
C28 O3 1_555 1_555
H25 C28 1_555 1_555
H26 C28 1_555 1_555
O7_2 Cd2 1_555 1_555
O8_2 Cd2 1_555 1_555
C9_2 C13_2 1_555 1_555
C27 C28 1_555 1_555
O7 C15_2 1_555 1_555
O8 C15_2 1_555 1_555
Cd3 O1_3 1_555 1_555
N1_3 C1_3 1_555 1_555
O1_3 C13_3 1_555 1_555
N2_2 C20_3 1_555 1_555
O5_3 Cd3 1_555 1_555
O6_3 Cd3 1_555 1_555
C1_3 C3_3 1_555 1_555
C2_3 N1_3 1_555 1_555
C3_3 H3_3 1_555 1_555
C4_3 C3_3 1_555 1_555
C5_3 C2_3 1_555 1_555
C6_3 C1_3 1_555 1_555
C7_3 C2_3 1_555 1_555
H4_3 C7_3 1_555 1_555
C8_3 C4_3 1_555 1_555
C9_3 C11_2 1_555 1_555
C11_2 H5_2 1_555 1_555
C12_3 C6_3 1_555 1_555
H6_3 C12_3 1_555 1_555
C13_3 O5_3 1_555 1_555
C14_3 C5_3 1_555 1_555
H7_3 C14_3 1_555 1_555
C16_3 C10_3 1_555 1_555
H8_3 C16_3 1_555 1_555
C17_3 C8_3 1_555 1_555
H9_3 C17_3 1_555 1_555
C18_2 C9_3 1_555 1_555
H10_3 C18_2 1_555 1_555
C19_2 C6_3 1_555 1_555
H11_2 C19_2 1_555 1_555
C20_3 C17_3 1_555 1_555
H12_3 C20_3 1_555 1_555
C21_3 C10_3 1_555 1_555
H13_3 C21_3 1_555 1_555
C22_3 C5_3 1_555 1_555
H14_3 C22_3 1_555 1_555
C23_3 N2_2 1_555 1_555
H15_3 C23_3 1_555 1_555
C24_3 C8_3 1_555 1_555
H16_3 C24_3 1_555 1_555
C25_2 O6_3 1_555 1_555
H18_2 C25_2 1_555 1_555
C26_2 C25_2 1_555 1_555
H19_2 C26_2 1_555 1_555
H20_2 C26_2 1_555 1_555
H21_2 C26_2 1_555 1_555
Cd3_2 N2_2 1_555 1_555
N3_2 Cd3 1_555 1_555
C4_3 C7_3 1_555 1_555
C9_3 C13_3 1_555 1_555
C11_2 C12_3 1_555 1_555
C14_3 C16_3 1_555 1_555
C18_2 C19_2 1_555 1_555
C21_3 C22_3 1_555 1_555
C23_3 C24_3 1_555 1_555
N1_4 C1_4 1_555 1_555
O7_2 C15_3 1_555 1_555
N3_2 C20_4 1_555 1_555
O8_2 C15_3 1_555 1_555
C1_4 C3_4 1_555 1_555
C2_4 N1_4 1_555 1_555
C3_4 H3_4 1_555 1_555
C4_4 C3_4 1_555 1_555
C5_4 C2_4 1_555 1_555
C6_4 C1_4 1_555 1_555
C7_4 C2_4 1_555 1_555
H4_4 C7_4 1_555 1_555
C8_4 C4_4 1_555 1_555
C10_4 C15_3 1_555 1_555
C12_4 C6_4 1_555 1_555
H6_4 C12_4 1_555 1_555
C14_4 C5_4 1_555 1_555
H7_4 C14_4 1_555 1_555
C16_4 C10_4 1_555 1_555
H8_4 C16_4 1_555 1_555
C17_4 C8_4 1_555 1_555
H9_4 C17_4 1_555 1_555
C20_4 C17_4 1_555 1_555
H12_4 C20_4 1_555 1_555
C21_4 C10_4 1_555 1_555
H13_4 C21_4 1_555 1_555
C22_4 C5_4 1_555 1_555
H14_4 C22_4 1_555 1_555
C23_4 N3_2 1_555 1_555
H15_4 C23_4 1_555 1_555
C24_4 C8_4 1_555 1_555
H16_4 C24_4 1_555 1_555
C4_4 C7_4 1_555 1_555
C14_4 C16_4 1_555 1_555
C21_4 C22_4 1_555 1_555
C23_4 C24_4 1_555 1_555
Cd3_2 O1_4 1_555 1_555
O1_4 C13_4 1_555 1_555
O3_2 Cd3_2 1_555 1_555
O5_4 Cd3_2 1_555 1_555
O6_4 Cd3_2 1_555 1_555
C13_4 O5_4 1_555 1_555
H23_2 C27_2 1_555 1_555
C28_2 O3_2 1_555 1_555
H25_2 C28_2 1_555 1_555
H26_2 C28_2 1_555 1_555
C9_4 C13_4 1_555 1_555
C27_2 C28_2 1_555 1_555
O2_2 C15_4 1_555 1_555
O4_2 C15_4 1_555 1_555
C27_3 H22 1_555 1_555
H23_3 C27_3 1_555 1_555
H24 C27_3 1_555 1_555
C28_3 O3_3 1_555 1_555
H25_3 C28_3 1_555 1_555
H26_3 C28_3 1_555 1_555
C27_3 C28_3 1_555 1_555
C27_4 H22_2 1_555 1_555
H23_4 C27_4 1_555 1_555
H24_2 C27_4 1_555 1_555
C28_4 O3_4 1_555 1_555
H25_4 C28_4 1_555 1_555
H26_4 C28_4 1_555 1_555
C27_4 C28_4 1_555 1_555
O7_3 C15_5 1_555 1_555
O8_3 C15_5 1_555 1_555
Cd1_2 O1_5 1_555 1_555
N1_5 C1_5 1_555 1_555
O1_5 C13_5 1_555 1_555
N2_3 C20_5 1_555 1_555
O5_5 Cd1_2 1_555 1_555
O6_5 Cd1_2 1_555 1_555
C1_5 C3_5 1_555 1_555
C2_5 N1_5 1_555 1_555
C3_5 H3_5 1_555 1_555
C4_5 C3_5 1_555 1_555
C5_5 C2_5 1_555 1_555
C6_5 C1_5 1_555 1_555
C7_5 C2_5 1_555 1_555
H4_5 C7_5 1_555 1_555
C8_5 C4_5 1_555 1_555
C9_5 C11_3 1_555 1_555
C11_3 H5_3 1_555 1_555
C12_5 C6_5 1_555 1_555
H6_5 C12_5 1_555 1_555
C13_5 O5_5 1_555 1_555
C14_5 C5_5 1_555 1_555
H7_5 C14_5 1_555 1_555
C16_5 C10_5 1_555 1_555
H8_5 C16_5 1_555 1_555
C17_5 C8_5 1_555 1_555
H9_5 C17_5 1_555 1_555
C18_3 C9_5 1_555 1_555
H10_5 C18_3 1_555 1_555
C19_3 C6_5 1_555 1_555
H11_3 C19_3 1_555 1_555
C20_5 C17_5 1_555 1_555
H12_5 C20_5 1_555 1_555
C21_5 C10_5 1_555 1_555
H13_5 C21_5 1_555 1_555
C22_5 C5_5 1_555 1_555
H14_5 C22_5 1_555 1_555
C23_5 N2_3 1_555 1_555
H15_5 C23_5 1_555 1_555
C24_5 C8_5 1_555 1_555
H16_5 C24_5 1_555 1_555
C25_3 O6_5 1_555 1_555
H18_3 C25_3 1_555 1_555
C26_3 C25_3 1_555 1_555
H19_3 C26_3 1_555 1_555
H20_3 C26_3 1_555 1_555
H21_3 C26_3 1_555 1_555
Cd2_2 N2_3 1_555 1_555
N3_3 Cd1_2 1_555 1_555
C4_5 C7_5 1_555 1_555
C9_5 C13_5 1_555 1_555
C11_3 C12_5 1_555 1_555
C14_5 C16_5 1_555 1_555
C18_3 C19_3 1_555 1_555
C21_5 C22_5 1_555 1_555
C23_5 C24_5 1_555 1_555
O2_3 C15_6 1_555 1_555
O4_3 C15_6 1_555 1_555
Cd3_3 O2_3 1_555 1_555
O4_3 Cd3_3 1_555 1_555
Cd2_2 O1_6 1_555 1_555
O1_6 C13_6 1_555 1_555
O3_5 Cd2_2 1_555 1_555
O5_6 Cd2_2 1_555 1_555
O6_6 Cd2_2 1_555 1_555
C13_6 O5_6 1_555 1_555
H23_5 C27_5 1_555 1_555
C28_5 O3_5 1_555 1_555
H25_5 C28_5 1_555 1_555
H26_5 C28_5 1_555 1_555
C9_6 C13_6 1_555 1_555
C27_5 C28_5 1_555 1_555
N1_6 C1_6 1_555 1_555
O2_4 C15_7 1_555 1_555
N3_3 C20_6 1_555 1_555
O4_4 C15_7 1_555 1_555
C1_6 C3_6 1_555 1_555
C2_6 N1_6 1_555 1_555
C3_6 H3_6 1_555 1_555
C4_6 C3_6 1_555 1_555
C5_6 C2_6 1_555 1_555
C6_6 C1_6 1_555 1_555
C7_6 C2_6 1_555 1_555
H4_6 C7_6 1_555 1_555
C8_6 C4_6 1_555 1_555
C10_6 C15_7 1_555 1_555
C12_6 C6_6 1_555 1_555
H6_6 C12_6 1_555 1_555
C14_6 C5_6 1_555 1_555
H7_6 C14_6 1_555 1_555
C16_6 C10_6 1_555 1_555
H8_6 C16_6 1_555 1_555
C17_6 C8_6 1_555 1_555
H9_6 C17_6 1_555 1_555
C20_6 C17_6 1_555 1_555
H12_6 C20_6 1_555 1_555
C21_6 C10_6 1_555 1_555
H13_6 C21_6 1_555 1_555
C22_6 C5_6 1_555 1_555
H14_6 C22_6 1_555 1_555
C23_6 N3_3 1_555 1_555
H15_6 C23_6 1_555 1_555
C24_6 C8_6 1_555 1_555
H16_6 C24_6 1_555 1_555
Cd3_4 O2_4 1_555 1_555
O4_4 Cd3_4 1_555 1_555
C4_6 C7_6 1_555 1_555
C14_6 C16_6 1_555 1_555
C21_6 C22_6 1_555 1_555
C23_6 C24_6 1_555 1_555
Cd3_3 O1_7 1_555 1_555
N1_7 C1_7 1_555 1_555
O1_7 C13_7 1_555 1_555
N2_4 C20_7 1_555 1_555
O5_7 Cd3_3 1_555 1_555
O6_7 Cd3_3 1_555 1_555
C1_7 C3_7 1_555 1_555
C2_7 N1_7 1_555 1_555
C3_7 H3_7 1_555 1_555
C4_7 C3_7 1_555 1_555
C5_7 C2_7 1_555 1_555
C6_7 C1_7 1_555 1_555
C7_7 C2_7 1_555 1_555
H4_7 C7_7 1_555 1_555
C8_7 C4_7 1_555 1_555
C9_7 C11_4 1_555 1_555
C11_4 H5_4 1_555 1_555
C12_7 C6_7 1_555 1_555
H6_7 C12_7 1_555 1_555
C13_7 O5_7 1_555 1_555
C14_7 C5_7 1_555 1_555
H7_7 C14_7 1_555 1_555
C16_7 C10_7 1_555 1_555
H8_7 C16_7 1_555 1_555
C17_7 C8_7 1_555 1_555
H9_7 C17_7 1_555 1_555
C18_4 C9_7 1_555 1_555
H10_7 C18_4 1_555 1_555
C19_4 C6_7 1_555 1_555
H11_4 C19_4 1_555 1_555
C20_7 C17_7 1_555 1_555
H12_7 C20_7 1_555 1_555
C21_7 C10_7 1_555 1_555
H13_7 C21_7 1_555 1_555
C22_7 C5_7 1_555 1_555
H14_7 C22_7 1_555 1_555
C23_7 N2_4 1_555 1_555
H15_7 C23_7 1_555 1_555
C24_7 C8_7 1_555 1_555
H16_7 C24_7 1_555 1_555
C25_4 O6_7 1_555 1_555
H17_4 C25_4 1_555 1_555
H18_4 C25_4 1_555 1_555
C26_4 C25_4 1_555 1_555
H19_4 C26_4 1_555 1_555
H20_4 C26_4 1_555 1_555
H21_4 C26_4 1_555 1_555
Cd3_4 N2_4 1_555 1_555
N3_4 Cd3_3 1_555 1_555
C4_7 C7_7 1_555 1_555
C9_7 C13_7 1_555 1_555
C11_4 C12_7 1_555 1_555
C14_7 C16_7 1_555 1_555
C18_4 C19_4 1_555 1_555
C21_7 C22_7 1_555 1_555
C23_7 C24_7 1_555 1_555
Cd3_4 O1_8 1_555 1_555
O1_8 C13_8 1_555 1_555
O3_6 Cd3_4 1_555 1_555
O5_8 Cd3_4 1_555 1_555
O6_8 Cd3_4 1_555 1_555
C13_8 O5_8 1_555 1_555
H23_6 C27_6 1_555 1_555
C28_6 O3_6 1_555 1_555
H25_6 C28_6 1_555 1_555
H26_6 C28_6 1_555 1_555
C9_8 C13_8 1_555 1_555
C27_6 C28_6 1_555 1_555
N1_8 C1_8 1_555 1_555
O7_4 C15_8 1_555 1_555
N3_4 C20_8 1_555 1_555
O8_4 C15_8 1_555 1_555
C1_8 C3_8 1_555 1_555
C2_8 N1_8 1_555 1_555
C3_8 H3_8 1_555 1_555
C4_8 C3_8 1_555 1_555
C5_8 C2_8 1_555 1_555
C6_8 C1_8 1_555 1_555
C7_8 C2_8 1_555 1_555
H4_8 C7_8 1_555 1_555
C8_8 C4_8 1_555 1_555
C10_8 C15_8 1_555 1_555
C12_8 C6_8 1_555 1_555
H6_8 C12_8 1_555 1_555
C14_8 C5_8 1_555 1_555
H7_8 C14_8 1_555 1_555
C16_8 C10_8 1_555 1_555
H8_8 C16_8 1_555 1_555
C17_8 C8_8 1_555 1_555
H9_8 C17_8 1_555 1_555
C20_8 C17_8 1_555 1_555
H12_8 C20_8 1_555 1_555
C21_8 C10_8 1_555 1_555
H13_8 C21_8 1_555 1_555
C22_8 C5_8 1_555 1_555
H14_8 C22_8 1_555 1_555
C23_8 N3_4 1_555 1_555
H15_8 C23_8 1_555 1_555
C24_8 C8_8 1_555 1_555
H16_8 C24_8 1_555 1_555
C4_8 C7_8 1_555 1_555
C14_8 C16_8 1_555 1_555
C21_8 C22_8 1_555 1_555
C23_8 C24_8 1_555 1_555
H17_5 C25_5 1_555 1_555
H18_5 C25_5 1_555 1_555
C26_5 C25_5 1_555 1_555
H19_5 C26_5 1_555 1_555
H20_5 C26_5 1_555 1_555
H21_5 C26_5 1_555 1_555
C11_5 H5_5 1_555 1_555
H11_5 C19_5 1_555 1_555
C18_5 C19_5 1_555 1_555
C11_6 H5_6 1_555 1_555
H11_6 C19_6 1_555 1_555
C18_6 C19_6 1_555 1_555
H18_6 C25_6 1_555 1_555
C26_6 C25_6 1_555 1_555
H19_6 C26_6 1_555 1_555
H20_6 C26_6 1_555 1_555
H21_6 C26_6 1_555 1_555
C27_7 H22_5 1_555 1_555
H23_7 C27_7 1_555 1_555
H24_5 C27_7 1_555 1_555
C28_7 O3_7 1_555 1_555
H25_7 C28_7 1_555 1_555
H26_7 C28_7 1_555 1_555
C27_7 C28_7 1_555 1_555
C27_8 H22_6 1_555 1_555
H23_8 C27_8 1_555 1_555
H24_6 C27_8 1_555 1_555
C28_8 O3_8 1_555 1_555
H25_8 C28_8 1_555 1_555
H26_8 C28_8 1_555 1_555
C27_8 C28_8 1_555 1_555
C11_7 H5_7 1_555 1_555
H11_7 C19_7 1_555 1_555
C18_7 C19_7 1_555 1_555
H17_7 C25_7 1_555 1_555
H18_7 C25_7 1_555 1_555
C26_7 C25_7 1_555 1_555
H19_7 C26_7 1_555 1_555
H20_7 C26_7 1_555 1_555
H21_7 C26_7 1_555 1_555
H18_8 C25_8 1_555 1_555
C26_8 C25_8 1_555 1_555
H19_8 C26_8 1_555 1_555
H20_8 C26_8 1_555 1_555
H21_8 C26_8 1_555 1_555
C11_8 H5_8 1_555 1_555
H11_8 C19_8 1_555 1_555
C18_8 C19_8 1_555 1_555

#END
