
###############################################################################
#
# This file contains modified crystal structure data generated from the
# MOF subset of the Cambridge Structural Database (CSD) v542 
# hosted by the Cambridge Crystallographic Data Centre (CCDC).
#
# This work is licensed under the Creative Commons
# Attribution-NonCommercial-ShareAlike 4.0 International License.
# To view a copy of this license, visit
# http://creativecommons.org/licenses/by-nc-sa/4.0/
# or send a letter to
# Creative Commons, PO Box 1866, Mountain View, CA 94042, USA.
#
# CIF created using the CSD Python API on 22 February 2021
# The structure has been converted into the P1 space group
# The structure has a 3D framework
# The original CSD entry HOQTAL is in the orthorhombic crystal system
# The framework has been calculated to contain at least 10.0% void space
# The void calculation uses a probe of radius 1.32A, grid spacing 0.4
#
###############################################################################

data_HOQTAL
_chemical_formula_moiety         '(C224 H184 N24 O40 Zn8)n'
_symmetry_cell_setting           triclinic
_symmetry_space_group_name_H-M   'P 1'
_symmetry_Int_Tables_number      1
_space_group_name_Hall           'P 1'
loop_
_symmetry_equiv_pos_site_id
_symmetry_equiv_pos_as_xyz
1 x,y,z
_cell_length_a                   27.3779(5)
_cell_length_b                   13.0085(2)
_cell_length_c                   16.8381(3)
_cell_angle_alpha                90
_cell_angle_beta                 90
_cell_angle_gamma                90
_cell_volume                     5996.81
loop_
_atom_site_label
_atom_site_type_symbol
_atom_site_fract_x
_atom_site_fract_y
_atom_site_fract_z
H18 H 0.194124 0.033173 0.738151
H19 H 0.180567 0.049171 0.827758
Zn1 Zn 0.12881(2) 0.68845(2) 0.72832(2)
O1 O 0.17987(6) 0.61793(12) 0.66910(11)
O2 O 0.15571(7) 0.80666(12) 0.78877(11)
N1 N 0.37664(6) 0.42366(13) 0.45339(10)
N2 N 0.57450(6) 0.73502(14) 0.32995(11)
O4 O 0.19268(7) 0.77244(14) 0.61999(12)
C1 C 0.49676(7) 0.61316(16) 0.38286(12)
C2 C 0.37534(7) 0.52592(15) 0.46495(12)
C3 C 0.41620(7) 0.38250(15) 0.41874(12)
C4 C 0.33046(7) 0.56663(15) 0.50343(12)
C5 C 0.45612(7) 0.44113(16) 0.39604(13)
H1 H 0.483291 0.410017 0.373215
C6 C 0.45511(7) 0.54735(15) 0.40778(12)
C7 C 0.24637(7) 0.63999(15) 0.58048(12)
C8 C 0.41379(7) 0.58977(15) 0.44287(13)
H2 H 0.411871 0.660266 0.451522
C9 C 0.20326(8) 0.68116(16) 0.62512(13)
C10 C 0.41384(7) 0.26931(16) 0.40456(13)
C11 C 0.31742(8) 0.67047(16) 0.49845(13)
H3 H 0.336797 0.715890 0.469701
C12 C 0.40223(9) 0.05971(17) 0.37018(16)
C13 C 0.30020(8) 0.50015(16) 0.54574(14)
H4 H 0.307747 0.430510 0.548110
C14 C 0.25908(8) 0.53655(16) 0.58423(14)
H5 H 0.239645 0.491269 0.613015
C15 C 0.27574(8) 0.70573(16) 0.53621(14)
H6 H 0.267217 0.774708 0.531879
C16 C 0.54401(8) 0.57503(17) 0.37846(15)
H7 H 0.550453 0.507354 0.392849
C17 C 0.58123(8) 0.63750(18) 0.35282(16)
H8 H 0.612702 0.610696 0.351257
C18 C 0.38290(10) 0.20837(18) 0.44928(16)
H9 H 0.365477 0.237504 0.491007
C19 C 0.52921(9) 0.77269(17) 0.33642(16)
H10 H 0.523923 0.841078 0.322798
C20 C 0.49002(8) 0.71535(18) 0.36222(16)
H11 H 0.459190 0.745017 0.365777
C21 C 0.44079(9) 0.22289(19) 0.34386(16)
H12 H 0.463133 0.261523 0.314870
C22 C 0.37746(11) 0.10462(19) 0.43293(17)
H13 H 0.356963 0.064740 0.464404
C24 C 0.43436(9) 0.11915(19) 0.32658(16)
H14 H 0.451896 0.089456 0.285201
N3 N 0.21792(13) 0.9148(3) 0.80865(19)
C25 C 0.20003(14) 0.8247(3) 0.80483(18)
C26 C 0.23523(13) 0.7361(3) 0.8241(2)
H15 H 0.216907 0.677522 0.841833
H16 H 0.257404 0.757219 0.865103
H17 H 0.253361 0.718172 0.777268
C27 C 0.18263(19) 0.9999(3) 0.7855(2)
H20 H 0.150905 0.970987 0.775858
C28 C 0.26732(17) 0.9419(4) 0.8291(3)
H21 H 0.286582 0.880560 0.834082
H22 H 0.267469 0.978426 0.878646
H23 H 0.280845 0.984763 0.788252
Zn3 Zn 0.62881(2) 0.81155(2) 0.27168(2)
N4 N 0.07450(6) 0.76498(14) 0.67005(11)
O6 O 0.09158(7) 0.58088(14) 0.78177(12)
N1_2 N 0.12336(6) 0.07634(13) 0.95339(10)
C3_2 C 0.08380(7) 0.11750(15) 0.91874(12)
C5_2 C 0.04388(7) 0.05887(16) 0.89604(13)
H1_2 H 0.016709 0.089983 0.873215
C10_2 C 0.08616(7) 0.23069(16) 0.90456(13)
C12_2 C 0.09777(9) 0.44029(17) 0.87018(16)
C18_2 C 0.11710(10) 0.29163(18) 0.94928(16)
H9_2 H 0.134523 0.262496 0.991007
O5 O 0.13595(12) 0.60239(19) 0.8899(2)
C21_2 C 0.05921(9) 0.27711(19) 0.84386(16)
H12_2 H 0.036867 0.238477 0.814870
C22_2 C 0.12254(11) 0.39538(19) 0.93293(17)
H13_2 H 0.143037 0.435260 0.964404
C23 C 0.10922(10) 0.55061(19) 0.84730(18)
C24_2 C 0.06564(9) 0.38085(19) 0.82658(16)
H14_2 H 0.048104 0.410544 0.785201
O3 O 0.59158(7) 0.91912(14) 0.21823(12)
O5_2 O 0.63595(12) 0.89761(19) 0.1101(2)
C23_2 C 0.60922(10) 0.94939(19) 0.15270(18)
C16_2 C 0.04401(8) 0.92497(17) 0.62154(15)
H7_2 H 0.050453 0.992646 0.607151
C17_2 C 0.08123(8) 0.86250(18) 0.64718(16)
H8_2 H 0.112702 0.889304 0.648743
C19_2 C 0.02921(9) 0.72731(17) 0.66358(16)
H10_2 H 0.023923 0.658922 0.677202
O1_2 O 0.67987(6) 0.88207(12) 0.33090(11)
O2_2 O 0.65571(7) 0.69334(12) 0.21123(11)
O4_2 O 0.69268(7) 0.72756(14) 0.38001(12)
C1_2 C 0.99676(7) 0.88684(16) 0.61714(12)
C2_2 C 0.87534(7) 0.97408(15) 0.53505(12)
C4_2 C 0.83046(7) 0.93337(15) 0.49657(12)
C6_2 C 0.95511(7) 0.95265(15) 0.59222(12)
C7_2 C 0.74637(7) 0.86001(15) 0.41952(12)
C8_2 C 0.91379(7) 0.91023(15) 0.55713(13)
H2_2 H 0.911871 0.839734 0.548478
C9_2 C 0.70326(8) 0.81884(16) 0.37488(13)
C11_2 C 0.81742(8) 0.82953(16) 0.50155(13)
H3_2 H 0.836797 0.784110 0.530299
C13_2 C 0.80020(8) 0.99985(16) 0.45426(14)
C14_2 C 0.75908(8) 0.96345(16) 0.41577(14)
C15_2 C 0.77574(8) 0.79427(16) 0.46379(14)
H6_2 H 0.767217 0.725292 0.468121
C20_2 C 0.99002(8) 0.78465(18) 0.63778(16)
H11_2 H 0.959190 0.754983 0.634223
N3_2 N 0.71792(13) 0.5852(3) 0.19135(19)
C25_2 C 0.70003(14) 0.6753(3) 0.19517(18)
C26_2 C 0.73523(13) 0.7639(3) 0.1759(2)
H15_2 H 0.716907 0.822478 0.158167
H16_2 H 0.757404 0.742781 0.134897
H17_2 H 0.753361 0.781828 0.222732
C27_2 C 0.68263(19) 0.5001(3) 0.2145(2)
H18_2 H 0.694124 0.466827 0.261849
H19_2 H 0.680567 0.450829 0.172242
H20_2 H 0.650905 0.529013 0.224142
C28_2 C 0.76732(17) 0.5581(4) 0.1709(3)
H21_2 H 0.786582 0.619440 0.165918
H22_2 H 0.767469 0.521574 0.121354
H23_2 H 0.780845 0.515237 0.211748
O3_2 O 0.40842(7) 0.91912(14) 0.28177(12)
O5_3 O 0.36405(12) 0.89761(19) 0.3899(2)
C23_3 C 0.39078(10) 0.94939(19) 0.34730(18)
Zn2 Zn 0.37119(2) 0.81155(2) 0.22832(2)
O1_3 O 0.32013(6) 0.88207(12) 0.16910(11)
O2_3 O 0.34429(7) 0.69334(12) 0.28877(11)
O4_3 O 0.30732(7) 0.72756(14) 0.11999(12)
C4_3 C 0.16954(7) 0.93337(15) 0.00343(12)
C7_3 C 0.25363(7) 0.86001(15) 0.08048(12)
C9_3 C 0.29674(8) 0.81884(16) 0.12512(13)
C13_3 C 0.19980(8) 0.99985(16) 0.04574(14)
C14_3 C 0.24092(8) 0.96345(16) 0.08423(14)
C15_3 C 0.22426(8) 0.79427(16) 0.03621(14)
H6_3 H 0.232783 0.725292 0.031879
N3_3 N 0.28208(13) 0.5852(3) 0.30865(19)
C25_3 C 0.29997(14) 0.6753(3) 0.30483(18)
C26_3 C 0.26477(13) 0.7639(3) 0.3241(2)
H15_3 H 0.283093 0.822478 0.341833
H16_3 H 0.242596 0.742781 0.365103
H17_3 H 0.246639 0.781828 0.277268
C27_3 C 0.31737(19) 0.5001(3) 0.2855(2)
H18_3 H 0.305876 0.466827 0.238151
H19_3 H 0.319433 0.450829 0.327758
H20_3 H 0.349095 0.529013 0.275858
C28_3 C 0.23268(17) 0.5581(4) 0.3291(3)
H21_3 H 0.213418 0.619440 0.334082
H22_3 H 0.232531 0.521574 0.378646
H23_3 H 0.219155 0.515237 0.288252
N4_2 N 0.42550(6) 0.73502(14) 0.17005(11)
N1_3 N 0.62336(6) 0.42366(13) 0.04661(10)
C1_3 C 0.50324(7) 0.61316(16) 0.11714(12)
C2_3 C 0.62466(7) 0.52592(15) 0.03505(12)
C3_3 C 0.58380(7) 0.38250(15) 0.08126(12)
C5_3 C 0.54388(7) 0.44113(16) 0.10396(13)
H1_3 H 0.516709 0.410017 0.126785
C6_3 C 0.54489(7) 0.54735(15) 0.09222(12)
C8_3 C 0.58621(7) 0.58977(15) 0.05713(13)
H2_3 H 0.588129 0.660266 0.048478
C10_3 C 0.58616(7) 0.26931(16) 0.09544(13)
C11_3 C 0.68258(8) 0.67047(16) 0.00155(13)
H3_3 H 0.663203 0.715890 0.030299
C12_3 C 0.59777(9) 0.05971(17) 0.12982(16)
C16_3 C 0.45599(8) 0.57503(17) 0.12154(15)
H7_3 H 0.449547 0.507354 0.107151
C17_3 C 0.41877(8) 0.63750(18) 0.14718(16)
H8_3 H 0.387298 0.610696 0.148743
C18_3 C 0.61710(10) 0.20837(18) 0.05072(16)
H9_3 H 0.634523 0.237504 0.008993
C19_3 C 0.47079(9) 0.77269(17) 0.16358(16)
H10_3 H 0.476077 0.841078 0.177202
C20_3 C 0.50998(8) 0.71535(18) 0.13778(16)
H11_3 H 0.540810 0.745017 0.134223
C21_3 C 0.55921(9) 0.22289(19) 0.15614(16)
H12_3 H 0.536867 0.261523 0.185130
C22_3 C 0.62254(11) 0.10462(19) 0.06707(17)
H13_3 H 0.643037 0.064740 0.035596
C24_3 C 0.56564(9) 0.11915(19) 0.17342(16)
H14_3 H 0.548104 0.089456 0.214799
H4_2 H 0.192253 0.069490 0.048110
H5_2 H 0.260355 0.008731 0.113015
C1_4 C 0.00324(7) 0.88684(16) 0.88286(12)
C2_4 C 0.12466(7) 0.97408(15) 0.96495(12)
C6_4 C 0.04489(7) 0.95265(15) 0.90778(12)
C8_4 C 0.08621(7) 0.91023(15) 0.94287(13)
H2_4 H 0.088129 0.839734 0.951522
C11_4 C 0.18258(8) 0.82953(16) 0.99845(13)
H3_4 H 0.163203 0.784110 0.969701
C20_4 C 0.00998(8) 0.78465(18) 0.86222(16)
H11_4 H 0.040810 0.754983 0.865777
N2_2 N 0.92550(6) 0.76498(14) 0.82995(11)
C16_4 C 0.95599(8) 0.92497(17) 0.87846(15)
H7_4 H 0.949547 0.992646 0.892849
C17_4 C 0.91877(8) 0.86250(18) 0.85282(16)
H8_4 H 0.887298 0.889304 0.851257
C19_4 C 0.97079(9) 0.72731(17) 0.83642(16)
H10_4 H 0.976077 0.658922 0.822798
Zn3_2 Zn 0.87119(2) 0.68845(2) 0.77168(2)
O1_4 O 0.82013(6) 0.61793(12) 0.83090(11)
O2_4 O 0.84429(7) 0.80666(12) 0.71123(11)
O4_4 O 0.80732(7) 0.77244(14) 0.88001(12)
C4_4 C 0.66954(7) 0.56663(15) 0.99657(12)
C7_4 C 0.75363(7) 0.63999(15) 0.91952(12)
C9_4 C 0.79674(8) 0.68116(16) 0.87488(13)
C13_4 C 0.69980(8) 0.50015(16) 0.95426(14)
H4_3 H 0.692253 0.430510 0.951890
C14_4 C 0.74092(8) 0.53655(16) 0.91577(14)
H5_3 H 0.760355 0.491269 0.886985
C15_4 C 0.72426(8) 0.70573(16) 0.96379(14)
H6_4 H 0.732783 0.774708 0.968121
N3_4 N 0.78208(13) 0.9148(3) 0.69135(19)
C25_4 C 0.79997(14) 0.8247(3) 0.69517(18)
C26_4 C 0.76477(13) 0.7361(3) 0.6759(2)
H15_4 H 0.783093 0.677522 0.658167
H16_4 H 0.742596 0.757219 0.634897
H17_4 H 0.746639 0.718172 0.722732
C27_4 C 0.81737(19) 0.9999(3) 0.7145(2)
H20_4 H 0.849095 0.970987 0.724142
C28_4 C 0.73268(17) 0.9419(4) 0.6709(3)
H21_4 H 0.713418 0.880560 0.665918
H22_4 H 0.732531 0.978426 0.621354
H23_4 H 0.719155 0.984763 0.711748
O6_2 O 0.90842(7) 0.58088(14) 0.71823(12)
N1_4 N 0.87664(6) 0.07634(13) 0.54661(10)
C3_4 C 0.91620(7) 0.11750(15) 0.58126(12)
C5_4 C 0.95612(7) 0.05887(16) 0.60396(13)
H1_4 H 0.983291 0.089983 0.626785
C10_4 C 0.91384(7) 0.23069(16) 0.59544(13)
C12_4 C 0.90223(9) 0.44029(17) 0.62982(16)
H4_4 H 0.807747 0.069490 0.451890
H5_4 H 0.739645 0.008731 0.386985
C18_4 C 0.88290(10) 0.29163(18) 0.55072(16)
H9_4 H 0.865477 0.262496 0.508993
O5_4 O 0.86405(12) 0.60239(19) 0.6101(2)
C21_4 C 0.94079(9) 0.27711(19) 0.65614(16)
H12_4 H 0.963133 0.238477 0.685130
C22_4 C 0.87746(11) 0.39538(19) 0.56707(17)
H13_4 H 0.856963 0.435260 0.535596
C23_4 C 0.89078(10) 0.55061(19) 0.65270(18)
C24_4 C 0.93436(9) 0.38085(19) 0.67342(16)
H14_4 H 0.951896 0.410544 0.714799
H18_4 H 0.805876 0.033173 0.761849
H19_4 H 0.819433 0.049171 0.672242
O3_3 O 0.59158(7) 0.08088(14) 0.71823(12)
O5_5 O 0.63595(12) 0.10239(19) 0.6101(2)
C23_5 C 0.60922(10) 0.05061(19) 0.65270(18)
Zn2_2 Zn 0.62881(2) 0.18845(2) 0.77168(2)
O1_5 O 0.67987(6) 0.11793(12) 0.83090(11)
O2_5 O 0.65571(7) 0.30666(12) 0.71123(11)
O4_5 O 0.69268(7) 0.27244(14) 0.88001(12)
C4_5 C 0.83046(7) 0.06663(15) 0.99657(12)
C7_5 C 0.74637(7) 0.13999(15) 0.91952(12)
C9_5 C 0.70326(8) 0.18116(16) 0.87488(13)
C13_5 C 0.80020(8) 0.00015(16) 0.95426(14)
C14_5 C 0.75908(8) 0.03655(16) 0.91577(14)
C15_5 C 0.77574(8) 0.20573(16) 0.96379(14)
H6_5 H 0.767217 0.274708 0.968121
N3_5 N 0.71792(13) 0.4148(3) 0.69135(19)
C25_5 C 0.70003(14) 0.3247(3) 0.69517(18)
C26_5 C 0.73523(13) 0.2361(3) 0.6759(2)
H15_5 H 0.716907 0.177522 0.658167
H16_5 H 0.757404 0.257219 0.634897
H17_5 H 0.753361 0.218172 0.722732
C27_5 C 0.68263(19) 0.4999(3) 0.7145(2)
H18_5 H 0.694124 0.533173 0.761849
H19_5 H 0.680567 0.549171 0.672242
H20_5 H 0.650905 0.470987 0.724142
C28_5 C 0.76732(17) 0.4419(4) 0.6709(3)
H21_5 H 0.786582 0.380560 0.665918
H22_5 H 0.767469 0.478426 0.621354
H23_5 H 0.780845 0.484763 0.711748
N4_3 N 0.57450(6) 0.26498(14) 0.82995(11)
N1_5 N 0.37664(6) 0.57634(13) 0.95339(10)
C1_5 C 0.49676(7) 0.38684(16) 0.88286(12)
C2_5 C 0.37534(7) 0.47408(15) 0.96495(12)
C3_5 C 0.41620(7) 0.61750(15) 0.91874(12)
C5_5 C 0.45612(7) 0.55887(16) 0.89604(13)
H1_5 H 0.483291 0.589983 0.873215
C6_5 C 0.45511(7) 0.45265(15) 0.90778(12)
C8_5 C 0.41379(7) 0.41023(15) 0.94287(13)
H2_5 H 0.411871 0.339734 0.951522
C10_5 C 0.41384(7) 0.73069(16) 0.90456(13)
C11_5 C 0.31742(8) 0.32953(16) 0.99845(13)
H3_5 H 0.336797 0.284110 0.969701
C12_5 C 0.40223(9) 0.94029(17) 0.87018(16)
C16_5 C 0.54401(8) 0.42497(17) 0.87846(15)
H7_5 H 0.550453 0.492646 0.892849
C17_5 C 0.58123(8) 0.36250(18) 0.85282(16)
H8_5 H 0.612702 0.389304 0.851257
C18_5 C 0.38290(10) 0.79163(18) 0.94928(16)
H9_5 H 0.365477 0.762496 0.991007
C19_5 C 0.52921(9) 0.22731(17) 0.83642(16)
H10_5 H 0.523923 0.158922 0.822798
C20_5 C 0.49002(8) 0.28465(18) 0.86222(16)
H11_5 H 0.459190 0.254983 0.865777
C21_5 C 0.44079(9) 0.77711(19) 0.84386(16)
H12_5 H 0.463133 0.738477 0.814870
C22_5 C 0.37746(11) 0.89538(19) 0.93293(17)
H13_5 H 0.356963 0.935260 0.964404
C24_5 C 0.43436(9) 0.88085(19) 0.82658(16)
H14_5 H 0.451896 0.910544 0.785201
Zn1_2 Zn 0.87119(2) 0.31155(2) 0.27168(2)
O1_6 O 0.82013(6) 0.38207(12) 0.33090(11)
O2_6 O 0.84429(7) 0.19334(12) 0.21123(11)
N1_6 N 0.62336(6) 0.57634(13) 0.54661(10)
N2_3 N 0.42550(6) 0.26498(14) 0.67005(11)
O4_6 O 0.80732(7) 0.22756(14) 0.38001(12)
C1_6 C 0.50324(7) 0.38684(16) 0.61714(12)
C2_6 C 0.62466(7) 0.47408(15) 0.53505(12)
C3_6 C 0.58380(7) 0.61750(15) 0.58126(12)
C4_6 C 0.66954(7) 0.43337(15) 0.49657(12)
C5_6 C 0.54388(7) 0.55887(16) 0.60396(13)
H1_6 H 0.516709 0.589983 0.626785
C6_6 C 0.54489(7) 0.45265(15) 0.59222(12)
C7_6 C 0.75363(7) 0.36001(15) 0.41952(12)
C8_6 C 0.58621(7) 0.41023(15) 0.55713(13)
H2_6 H 0.588129 0.339734 0.548478
C9_6 C 0.79674(8) 0.31884(16) 0.37488(13)
C10_6 C 0.58616(7) 0.73069(16) 0.59544(13)
C11_6 C 0.68258(8) 0.32953(16) 0.50155(13)
H3_6 H 0.663203 0.284110 0.530299
C12_6 C 0.59777(9) 0.94029(17) 0.62982(16)
C13_6 C 0.69980(8) 0.49985(16) 0.45426(14)
H4_5 H 0.692253 0.569490 0.451890
C14_6 C 0.74092(8) 0.46345(16) 0.41577(14)
H5_5 H 0.760355 0.508731 0.386985
C15_6 C 0.72426(8) 0.29427(16) 0.46379(14)
H6_6 H 0.732783 0.225292 0.468121
C16_6 C 0.45599(8) 0.42497(17) 0.62154(15)
H7_6 H 0.449547 0.492646 0.607151
C17_6 C 0.41877(8) 0.36250(18) 0.64718(16)
H8_6 H 0.387298 0.389304 0.648743
C18_6 C 0.61710(10) 0.79163(18) 0.55072(16)
H9_6 H 0.634523 0.762496 0.508993
C19_6 C 0.47079(9) 0.22731(17) 0.66358(16)
H10_6 H 0.476077 0.158922 0.677202
C20_6 C 0.50998(8) 0.28465(18) 0.63778(16)
H11_6 H 0.540810 0.254983 0.634223
C21_6 C 0.55921(9) 0.77711(19) 0.65614(16)
H12_6 H 0.536867 0.738477 0.685130
C22_6 C 0.62254(11) 0.89538(19) 0.56707(17)
H13_6 H 0.643037 0.935260 0.535596
C24_6 C 0.56564(9) 0.88085(19) 0.67342(16)
H14_6 H 0.548104 0.910544 0.714799
N3_6 N 0.78208(13) 0.0852(3) 0.19135(19)
C25_6 C 0.79997(14) 0.1753(3) 0.19517(18)
C26_6 C 0.76477(13) 0.2639(3) 0.1759(2)
H15_6 H 0.783093 0.322478 0.158167
H16_6 H 0.742596 0.242781 0.134897
H17_6 H 0.746639 0.281828 0.222732
C27_6 C 0.81737(19) 0.0001(3) 0.2145(2)
H20_6 H 0.849095 0.029013 0.224142
C28_6 C 0.73268(17) 0.0581(4) 0.1709(3)
H21_6 H 0.713418 0.119440 0.165918
H22_6 H 0.732531 0.021574 0.121354
H23_6 H 0.719155 0.015237 0.211748
Zn3_3 Zn 0.37119(2) 0.18845(2) 0.72832(2)
N4_4 N 0.92550(6) 0.23502(14) 0.32995(11)
O6_3 O 0.90842(7) 0.41912(14) 0.21823(12)
N1_7 N 0.87664(6) 0.92366(13) 0.04661(10)
C3_7 C 0.91620(7) 0.88250(15) 0.08126(12)
C5_7 C 0.95612(7) 0.94113(16) 0.10396(13)
H1_7 H 0.983291 0.910017 0.126785
C10_7 C 0.91384(7) 0.76931(16) 0.09544(13)
C12_7 C 0.90223(9) 0.55971(17) 0.12982(16)
C18_7 C 0.88290(10) 0.70837(18) 0.05072(16)
H9_7 H 0.865477 0.737504 0.008993
O5_6 O 0.86405(12) 0.39761(19) 0.1101(2)
C21_7 C 0.94079(9) 0.72289(19) 0.15614(16)
H12_7 H 0.963133 0.761523 0.185130
C22_7 C 0.87746(11) 0.60462(19) 0.06707(17)
H13_7 H 0.856963 0.564740 0.035596
C23_6 C 0.89078(10) 0.44939(19) 0.15270(18)
C24_7 C 0.93436(9) 0.61915(19) 0.17342(16)
H14_7 H 0.951896 0.589456 0.214799
O3_4 O 0.40842(7) 0.08088(14) 0.78177(12)
O5_7 O 0.36405(12) 0.10239(19) 0.8899(2)
C23_7 C 0.39078(10) 0.05061(19) 0.84730(18)
O1_7 O 0.32013(6) 0.11793(12) 0.66910(11)
O2_7 O 0.34429(7) 0.30666(12) 0.78877(11)
O4_7 O 0.30732(7) 0.27244(14) 0.61999(12)
C1_7 C 0.00324(7) 0.11316(16) 0.38286(12)
C2_7 C 0.12466(7) 0.02592(15) 0.46495(12)
C4_7 C 0.16954(7) 0.06663(15) 0.50343(12)
C6_7 C 0.04489(7) 0.04735(15) 0.40778(12)
C7_7 C 0.25363(7) 0.13999(15) 0.58048(12)
C8_7 C 0.08621(7) 0.08977(15) 0.44287(13)
H2_7 H 0.088129 0.160266 0.451522
C9_7 C 0.29674(8) 0.18116(16) 0.62512(13)
C11_7 C 0.18258(8) 0.17047(16) 0.49845(13)
H3_7 H 0.163203 0.215890 0.469701
C13_7 C 0.19980(8) 0.00015(16) 0.54574(14)
C14_7 C 0.24092(8) 0.03655(16) 0.58423(14)
C15_7 C 0.22426(8) 0.20573(16) 0.53621(14)
H6_7 H 0.232783 0.274708 0.531879
C20_7 C 0.00998(8) 0.21535(18) 0.36222(16)
H11_7 H 0.040810 0.245017 0.365777
N3_7 N 0.28208(13) 0.4148(3) 0.80865(19)
C25_7 C 0.29997(14) 0.3247(3) 0.80483(18)
C26_7 C 0.26477(13) 0.2361(3) 0.8241(2)
H15_7 H 0.283093 0.177522 0.841833
H16_7 H 0.242596 0.257219 0.865103
H17_7 H 0.246639 0.218172 0.777268
C27_7 C 0.31737(19) 0.4999(3) 0.7855(2)
H18_6 H 0.305876 0.533173 0.738151
H19_6 H 0.319433 0.549171 0.827758
H20_7 H 0.349095 0.470987 0.775858
C28_7 C 0.23268(17) 0.4419(4) 0.8291(3)
H21_7 H 0.213418 0.380560 0.834082
H22_7 H 0.232531 0.478426 0.878646
H23_7 H 0.219155 0.484763 0.788252
C16_7 C 0.95599(8) 0.07503(17) 0.37846(15)
H7_7 H 0.949547 0.007354 0.392849
C17_7 C 0.91877(8) 0.13750(18) 0.35282(16)
H8_7 H 0.887298 0.110696 0.351257
C19_7 C 0.97079(9) 0.27269(17) 0.33642(16)
H10_7 H 0.976077 0.341078 0.322798
H18_7 H 0.805876 0.966827 0.261849
H19_7 H 0.819433 0.950829 0.172242
N2_4 N 0.07450(6) 0.23502(14) 0.17005(11)
C16_8 C 0.04401(8) 0.07503(17) 0.12154(15)
H7_8 H 0.050453 0.007354 0.107151
C17_8 C 0.08123(8) 0.13750(18) 0.14718(16)
H8_8 H 0.112702 0.110696 0.148743
C19_8 C 0.02921(9) 0.27269(17) 0.16358(16)
H10_8 H 0.023923 0.341078 0.177202
Zn3_4 Zn 0.12881(2) 0.31155(2) 0.22832(2)
O1_8 O 0.17987(6) 0.38207(12) 0.16910(11)
O2_8 O 0.15571(7) 0.19334(12) 0.28877(11)
O4_8 O 0.19268(7) 0.22756(14) 0.11999(12)
C4_8 C 0.33046(7) 0.43337(15) 0.00343(12)
C7_8 C 0.24637(7) 0.36001(15) 0.08048(12)
C9_8 C 0.20326(8) 0.31884(16) 0.12512(13)
C13_8 C 0.30020(8) 0.49985(16) 0.04574(14)
H4_6 H 0.307747 0.569490 0.048110
C14_8 C 0.25908(8) 0.46345(16) 0.08423(14)
H5_6 H 0.239645 0.508731 0.113015
C15_8 C 0.27574(8) 0.29427(16) 0.03621(14)
H6_8 H 0.267217 0.225292 0.031879
N3_8 N 0.21792(13) 0.0852(3) 0.30865(19)
C25_8 C 0.20003(14) 0.1753(3) 0.30483(18)
C26_8 C 0.23523(13) 0.2639(3) 0.3241(2)
H15_8 H 0.216907 0.322478 0.341833
H16_8 H 0.257404 0.242781 0.365103
H17_8 H 0.253361 0.281828 0.277268
C27_8 C 0.18263(19) 0.0001(3) 0.2855(2)
H20_8 H 0.150905 0.029013 0.275858
C28_8 C 0.26732(17) 0.0581(4) 0.3291(3)
H21_8 H 0.286582 0.119440 0.334082
H22_8 H 0.267469 0.021574 0.378646
H23_8 H 0.280845 0.015237 0.288252
O6_4 O 0.09158(7) 0.41912(14) 0.28177(12)
N1_8 N 0.12336(6) 0.92366(13) 0.45339(10)
C3_8 C 0.08380(7) 0.88250(15) 0.41874(12)
C5_8 C 0.04388(7) 0.94113(16) 0.39604(13)
H1_8 H 0.016709 0.910017 0.373215
C10_8 C 0.08616(7) 0.76931(16) 0.40456(13)
C12_8 C 0.09777(9) 0.55971(17) 0.37018(16)
H4_7 H 0.192253 0.930510 0.548110
H5_7 H 0.260355 0.991269 0.613015
C18_8 C 0.11710(10) 0.70837(18) 0.44928(16)
H9_8 H 0.134523 0.737504 0.491007
O5_8 O 0.13595(12) 0.39761(19) 0.3899(2)
C21_8 C 0.05921(9) 0.72289(19) 0.34386(16)
H12_8 H 0.036867 0.761523 0.314870
C22_8 C 0.12254(11) 0.60462(19) 0.43293(17)
H13_8 H 0.143037 0.564740 0.464404
C23_8 C 0.10922(10) 0.44939(19) 0.34730(18)
C24_8 C 0.06564(9) 0.61915(19) 0.32658(16)
H14_8 H 0.048104 0.589456 0.285201
C1_8 C 0.99676(7) 0.11316(16) 0.11714(12)
C2_8 C 0.87534(7) 0.02592(15) 0.03505(12)
C6_8 C 0.95511(7) 0.04735(15) 0.09222(12)
C8_8 C 0.91379(7) 0.08977(15) 0.05713(13)
H2_8 H 0.911871 0.160266 0.048478
C11_8 C 0.81742(8) 0.17047(16) 0.00155(13)
H3_8 H 0.836797 0.215890 0.030299
C20_8 C 0.99002(8) 0.21535(18) 0.13778(16)
H11_8 H 0.959190 0.245017 0.134223
H4_8 H 0.807747 0.930510 0.951890
H5_8 H 0.739645 0.991269 0.886985
H18_8 H 0.194124 0.966827 0.238151
H19_8 H 0.180567 0.950829 0.327758
loop_
_geom_bond_atom_site_label_1
_geom_bond_atom_site_label_2
_geom_bond_site_symmetry_1
_geom_bond_site_symmetry_2
Zn1 O1 1_555 1_555
O1 C9 1_555 1_555
O2 Zn1 1_555 1_555
N1 C2 1_555 1_555
N2 C17 1_555 1_555
O4 C9 1_555 1_555
C1 C6 1_555 1_555
C2 C4 1_555 1_555
C3 N1 1_555 1_555
C4 C11 1_555 1_555
C5 C3 1_555 1_555
H1 C5 1_555 1_555
C6 C5 1_555 1_555
C7 C9 1_555 1_555
C8 C2 1_555 1_555
H2 C8 1_555 1_555
C10 C3 1_555 1_555
C11 H3 1_555 1_555
C12 C22 1_555 1_555
C13 C4 1_555 1_555
H4 C13 1_555 1_555
C14 C7 1_555 1_555
H5 C14 1_555 1_555
C15 C7 1_555 1_555
H6 C15 1_555 1_555
C16 C1 1_555 1_555
H7 C16 1_555 1_555
C17 C16 1_555 1_555
H8 C17 1_555 1_555
C18 C10 1_555 1_555
H9 C18 1_555 1_555
C19 N2 1_555 1_555
H10 C19 1_555 1_555
C20 C1 1_555 1_555
H11 C20 1_555 1_555
C21 C10 1_555 1_555
H12 C21 1_555 1_555
C22 C18 1_555 1_555
H13 C22 1_555 1_555
C24 C12 1_555 1_555
H14 C24 1_555 1_555
N3 C25 1_555 1_555
C25 O2 1_555 1_555
C26 C25 1_555 1_555
H15 C26 1_555 1_555
H16 C26 1_555 1_555
H17 C26 1_555 1_555
C27 N3 1_555 1_555
H20 C27 1_555 1_555
C28 N3 1_555 1_555
H21 C28 1_555 1_555
H22 C28 1_555 1_555
H23 C28 1_555 1_555
Zn3 N2 1_555 1_555
N4 Zn1 1_555 1_555
O6 Zn1 1_555 1_555
C6 C8 1_555 1_555
C11 C15 1_555 1_555
C13 C14 1_555 1_555
C19 C20 1_555 1_555
C21 C24 1_555 1_555
O6 C23 1_555 1_555
C3_2 N1_2 1_555 1_555
C5_2 C3_2 1_555 1_555
H1_2 C5_2 1_555 1_555
C10_2 C3_2 1_555 1_555
C12_2 C22_2 1_555 1_555
C18_2 C10_2 1_555 1_555
H9_2 C18_2 1_555 1_555
O5 C23 1_555 1_555
C21_2 C10_2 1_555 1_555
H12_2 C21_2 1_555 1_555
C22_2 C18_2 1_555 1_555
H13_2 C22_2 1_555 1_555
C23 C12_2 1_555 1_555
C24_2 C12_2 1_555 1_555
H14_2 C24_2 1_555 1_555
C21_2 C24_2 1_555 1_555
O3 C23_2 1_555 1_555
O5_2 C23_2 1_555 1_555
Zn3 O3 1_555 1_555
N4 C17_2 1_555 1_555
H7_2 C16_2 1_555 1_555
C17_2 C16_2 1_555 1_555
H8_2 C17_2 1_555 1_555
C19_2 N4 1_555 1_555
H10_2 C19_2 1_555 1_555
Zn3 O1_2 1_555 1_555
O1_2 C9_2 1_555 1_555
O2_2 Zn3 1_555 1_555
O4_2 C9_2 1_555 1_555
C1_2 C6_2 1_555 1_555
C2_2 C4_2 1_555 1_555
C4_2 C11_2 1_555 1_555
C7_2 C9_2 1_555 1_555
C8_2 C2_2 1_555 1_555
H2_2 C8_2 1_555 1_555
C11_2 H3_2 1_555 1_555
C13_2 C4_2 1_555 1_555
C14_2 C7_2 1_555 1_555
C15_2 C7_2 1_555 1_555
H6_2 C15_2 1_555 1_555
C20_2 C1_2 1_555 1_555
H11_2 C20_2 1_555 1_555
N3_2 C25_2 1_555 1_555
C25_2 O2_2 1_555 1_555
C26_2 C25_2 1_555 1_555
H15_2 C26_2 1_555 1_555
H16_2 C26_2 1_555 1_555
H17_2 C26_2 1_555 1_555
C27_2 N3_2 1_555 1_555
H18_2 C27_2 1_555 1_555
H19_2 C27_2 1_555 1_555
H20_2 C27_2 1_555 1_555
C28_2 N3_2 1_555 1_555
H21_2 C28_2 1_555 1_555
H22_2 C28_2 1_555 1_555
H23_2 C28_2 1_555 1_555
C6_2 C8_2 1_555 1_555
C11_2 C15_2 1_555 1_555
C13_2 C14_2 1_555 1_555
O3_2 C23_3 1_555 1_555
O5_3 C23_3 1_555 1_555
Zn2 O3_2 1_555 1_555
Zn2 O1_3 1_555 1_555
O1_3 C9_3 1_555 1_555
O2_3 Zn2 1_555 1_555
O4_3 C9_3 1_555 1_555
C7_3 C9_3 1_555 1_555
C13_3 C4_3 1_555 1_555
C14_3 C7_3 1_555 1_555
C15_3 C7_3 1_555 1_555
H6_3 C15_3 1_555 1_555
N3_3 C25_3 1_555 1_555
C25_3 O2_3 1_555 1_555
C26_3 C25_3 1_555 1_555
H15_3 C26_3 1_555 1_555
H16_3 C26_3 1_555 1_555
H17_3 C26_3 1_555 1_555
C27_3 N3_3 1_555 1_555
H18_3 C27_3 1_555 1_555
H19_3 C27_3 1_555 1_555
H20_3 C27_3 1_555 1_555
C28_3 N3_3 1_555 1_555
H21_3 C28_3 1_555 1_555
H22_3 C28_3 1_555 1_555
H23_3 C28_3 1_555 1_555
N4_2 Zn2 1_555 1_555
C13_3 C14_3 1_555 1_555
N1_3 C2_3 1_555 1_555
N4_2 C17_3 1_555 1_555
C1_3 C6_3 1_555 1_555
C3_3 N1_3 1_555 1_555
C5_3 C3_3 1_555 1_555
H1_3 C5_3 1_555 1_555
C6_3 C5_3 1_555 1_555
C8_3 C2_3 1_555 1_555
H2_3 C8_3 1_555 1_555
C10_3 C3_3 1_555 1_555
C11_3 H3_3 1_555 1_555
C12_3 C22_3 1_555 1_555
C16_3 C1_3 1_555 1_555
H7_3 C16_3 1_555 1_555
C17_3 C16_3 1_555 1_555
H8_3 C17_3 1_555 1_555
C18_3 C10_3 1_555 1_555
H9_3 C18_3 1_555 1_555
C19_3 N4_2 1_555 1_555
H10_3 C19_3 1_555 1_555
C20_3 C1_3 1_555 1_555
H11_3 C20_3 1_555 1_555
C21_3 C10_3 1_555 1_555
H12_3 C21_3 1_555 1_555
C22_3 C18_3 1_555 1_555
H13_3 C22_3 1_555 1_555
C24_3 C12_3 1_555 1_555
H14_3 C24_3 1_555 1_555
C6_3 C8_3 1_555 1_555
C19_3 C20_3 1_555 1_555
C21_3 C24_3 1_555 1_555
C1_4 C6_4 1_555 1_555
C8_4 C2_4 1_555 1_555
H2_4 C8_4 1_555 1_555
C11_4 H3_4 1_555 1_555
C20_4 C1_4 1_555 1_555
H11_4 C20_4 1_555 1_555
C6_4 C8_4 1_555 1_555
N2_2 C17_4 1_555 1_555
H7_4 C16_4 1_555 1_555
C17_4 C16_4 1_555 1_555
H8_4 C17_4 1_555 1_555
C19_4 N2_2 1_555 1_555
H10_4 C19_4 1_555 1_555
Zn3_2 N2_2 1_555 1_555
Zn3_2 O1_4 1_555 1_555
O1_4 C9_4 1_555 1_555
O2_4 Zn3_2 1_555 1_555
O4_4 C9_4 1_555 1_555
C7_4 C9_4 1_555 1_555
C13_4 C4_4 1_555 1_555
H4_3 C13_4 1_555 1_555
C14_4 C7_4 1_555 1_555
H5_3 C14_4 1_555 1_555
C15_4 C7_4 1_555 1_555
H6_4 C15_4 1_555 1_555
N3_4 C25_4 1_555 1_555
C25_4 O2_4 1_555 1_555
C26_4 C25_4 1_555 1_555
H15_4 C26_4 1_555 1_555
H16_4 C26_4 1_555 1_555
H17_4 C26_4 1_555 1_555
C27_4 N3_4 1_555 1_555
H20_4 C27_4 1_555 1_555
C28_4 N3_4 1_555 1_555
H21_4 C28_4 1_555 1_555
H22_4 C28_4 1_555 1_555
H23_4 C28_4 1_555 1_555
O6_2 Zn3_2 1_555 1_555
C13_4 C14_4 1_555 1_555
O6_2 C23_4 1_555 1_555
C3_4 N1_4 1_555 1_555
C5_4 C3_4 1_555 1_555
H1_4 C5_4 1_555 1_555
C10_4 C3_4 1_555 1_555
C12_4 C22_4 1_555 1_555
C18_4 C10_4 1_555 1_555
H9_4 C18_4 1_555 1_555
O5_4 C23_4 1_555 1_555
C21_4 C10_4 1_555 1_555
H12_4 C21_4 1_555 1_555
C22_4 C18_4 1_555 1_555
H13_4 C22_4 1_555 1_555
C23_4 C12_4 1_555 1_555
C24_4 C12_4 1_555 1_555
H14_4 C24_4 1_555 1_555
C21_4 C24_4 1_555 1_555
O3_3 C23_5 1_555 1_555
O5_5 C23_5 1_555 1_555
Zn2_2 O3_3 1_555 1_555
Zn2_2 O1_5 1_555 1_555
O1_5 C9_5 1_555 1_555
O2_5 Zn2_2 1_555 1_555
O4_5 C9_5 1_555 1_555
C7_5 C9_5 1_555 1_555
C13_5 C4_5 1_555 1_555
C14_5 C7_5 1_555 1_555
C15_5 C7_5 1_555 1_555
H6_5 C15_5 1_555 1_555
N3_5 C25_5 1_555 1_555
C25_5 O2_5 1_555 1_555
C26_5 C25_5 1_555 1_555
H15_5 C26_5 1_555 1_555
H16_5 C26_5 1_555 1_555
H17_5 C26_5 1_555 1_555
C27_5 N3_5 1_555 1_555
H18_5 C27_5 1_555 1_555
H19_5 C27_5 1_555 1_555
H20_5 C27_5 1_555 1_555
C28_5 N3_5 1_555 1_555
H21_5 C28_5 1_555 1_555
H22_5 C28_5 1_555 1_555
H23_5 C28_5 1_555 1_555
N4_3 Zn2_2 1_555 1_555
C13_5 C14_5 1_555 1_555
N1_5 C2_5 1_555 1_555
N4_3 C17_5 1_555 1_555
C1_5 C6_5 1_555 1_555
C3_5 N1_5 1_555 1_555
C5_5 C3_5 1_555 1_555
H1_5 C5_5 1_555 1_555
C6_5 C5_5 1_555 1_555
C8_5 C2_5 1_555 1_555
H2_5 C8_5 1_555 1_555
C10_5 C3_5 1_555 1_555
C11_5 H3_5 1_555 1_555
C12_5 C22_5 1_555 1_555
C16_5 C1_5 1_555 1_555
H7_5 C16_5 1_555 1_555
C17_5 C16_5 1_555 1_555
H8_5 C17_5 1_555 1_555
C18_5 C10_5 1_555 1_555
H9_5 C18_5 1_555 1_555
C19_5 N4_3 1_555 1_555
H10_5 C19_5 1_555 1_555
C20_5 C1_5 1_555 1_555
H11_5 C20_5 1_555 1_555
C21_5 C10_5 1_555 1_555
H12_5 C21_5 1_555 1_555
C22_5 C18_5 1_555 1_555
H13_5 C22_5 1_555 1_555
C24_5 C12_5 1_555 1_555
H14_5 C24_5 1_555 1_555
C6_5 C8_5 1_555 1_555
C19_5 C20_5 1_555 1_555
C21_5 C24_5 1_555 1_555
Zn1_2 O1_6 1_555 1_555
O1_6 C9_6 1_555 1_555
O2_6 Zn1_2 1_555 1_555
N1_6 C2_6 1_555 1_555
N2_3 C17_6 1_555 1_555
O4_6 C9_6 1_555 1_555
C1_6 C6_6 1_555 1_555
C2_6 C4_6 1_555 1_555
C3_6 N1_6 1_555 1_555
C4_6 C11_6 1_555 1_555
C5_6 C3_6 1_555 1_555
H1_6 C5_6 1_555 1_555
C6_6 C5_6 1_555 1_555
C7_6 C9_6 1_555 1_555
C8_6 C2_6 1_555 1_555
H2_6 C8_6 1_555 1_555
C10_6 C3_6 1_555 1_555
C11_6 H3_6 1_555 1_555
C12_6 C22_6 1_555 1_555
C13_6 C4_6 1_555 1_555
H4_5 C13_6 1_555 1_555
C14_6 C7_6 1_555 1_555
H5_5 C14_6 1_555 1_555
C15_6 C7_6 1_555 1_555
H6_6 C15_6 1_555 1_555
C16_6 C1_6 1_555 1_555
H7_6 C16_6 1_555 1_555
C17_6 C16_6 1_555 1_555
H8_6 C17_6 1_555 1_555
C18_6 C10_6 1_555 1_555
H9_6 C18_6 1_555 1_555
C19_6 N2_3 1_555 1_555
H10_6 C19_6 1_555 1_555
C20_6 C1_6 1_555 1_555
H11_6 C20_6 1_555 1_555
C21_6 C10_6 1_555 1_555
H12_6 C21_6 1_555 1_555
C22_6 C18_6 1_555 1_555
H13_6 C22_6 1_555 1_555
C24_6 C12_6 1_555 1_555
H14_6 C24_6 1_555 1_555
N3_6 C25_6 1_555 1_555
C25_6 O2_6 1_555 1_555
C26_6 C25_6 1_555 1_555
H15_6 C26_6 1_555 1_555
H16_6 C26_6 1_555 1_555
H17_6 C26_6 1_555 1_555
C27_6 N3_6 1_555 1_555
H20_6 C27_6 1_555 1_555
C28_6 N3_6 1_555 1_555
H21_6 C28_6 1_555 1_555
H22_6 C28_6 1_555 1_555
H23_6 C28_6 1_555 1_555
Zn3_3 N2_3 1_555 1_555
N4_4 Zn1_2 1_555 1_555
O6_3 Zn1_2 1_555 1_555
C6_6 C8_6 1_555 1_555
C11_6 C15_6 1_555 1_555
C13_6 C14_6 1_555 1_555
C19_6 C20_6 1_555 1_555
C21_6 C24_6 1_555 1_555
O6_3 C23_6 1_555 1_555
C3_7 N1_7 1_555 1_555
C5_7 C3_7 1_555 1_555
H1_7 C5_7 1_555 1_555
C10_7 C3_7 1_555 1_555
C12_7 C22_7 1_555 1_555
C18_7 C10_7 1_555 1_555
H9_7 C18_7 1_555 1_555
O5_6 C23_6 1_555 1_555
C21_7 C10_7 1_555 1_555
H12_7 C21_7 1_555 1_555
C22_7 C18_7 1_555 1_555
H13_7 C22_7 1_555 1_555
C23_6 C12_7 1_555 1_555
C24_7 C12_7 1_555 1_555
H14_7 C24_7 1_555 1_555
C21_7 C24_7 1_555 1_555
O3_4 C23_7 1_555 1_555
O5_7 C23_7 1_555 1_555
Zn3_3 O3_4 1_555 1_555
Zn3_3 O1_7 1_555 1_555
O1_7 C9_7 1_555 1_555
O2_7 Zn3_3 1_555 1_555
O4_7 C9_7 1_555 1_555
C1_7 C6_7 1_555 1_555
C2_7 C4_7 1_555 1_555
C4_7 C11_7 1_555 1_555
C7_7 C9_7 1_555 1_555
C8_7 C2_7 1_555 1_555
H2_7 C8_7 1_555 1_555
C11_7 H3_7 1_555 1_555
C13_7 C4_7 1_555 1_555
C14_7 C7_7 1_555 1_555
C15_7 C7_7 1_555 1_555
H6_7 C15_7 1_555 1_555
C20_7 C1_7 1_555 1_555
H11_7 C20_7 1_555 1_555
N3_7 C25_7 1_555 1_555
C25_7 O2_7 1_555 1_555
C26_7 C25_7 1_555 1_555
H15_7 C26_7 1_555 1_555
H16_7 C26_7 1_555 1_555
H17_7 C26_7 1_555 1_555
C27_7 N3_7 1_555 1_555
H18_6 C27_7 1_555 1_555
H19_6 C27_7 1_555 1_555
H20_7 C27_7 1_555 1_555
C28_7 N3_7 1_555 1_555
H21_7 C28_7 1_555 1_555
H22_7 C28_7 1_555 1_555
H23_7 C28_7 1_555 1_555
C6_7 C8_7 1_555 1_555
C11_7 C15_7 1_555 1_555
C13_7 C14_7 1_555 1_555
N4_4 C17_7 1_555 1_555
H7_7 C16_7 1_555 1_555
C17_7 C16_7 1_555 1_555
H8_7 C17_7 1_555 1_555
C19_7 N4_4 1_555 1_555
H10_7 C19_7 1_555 1_555
N2_4 C17_8 1_555 1_555
H7_8 C16_8 1_555 1_555
C17_8 C16_8 1_555 1_555
H8_8 C17_8 1_555 1_555
C19_8 N2_4 1_555 1_555
H10_8 C19_8 1_555 1_555
Zn3_4 N2_4 1_555 1_555
Zn3_4 O1_8 1_555 1_555
O1_8 C9_8 1_555 1_555
O2_8 Zn3_4 1_555 1_555
O4_8 C9_8 1_555 1_555
C7_8 C9_8 1_555 1_555
C13_8 C4_8 1_555 1_555
H4_6 C13_8 1_555 1_555
C14_8 C7_8 1_555 1_555
H5_6 C14_8 1_555 1_555
C15_8 C7_8 1_555 1_555
H6_8 C15_8 1_555 1_555
N3_8 C25_8 1_555 1_555
C25_8 O2_8 1_555 1_555
C26_8 C25_8 1_555 1_555
H15_8 C26_8 1_555 1_555
H16_8 C26_8 1_555 1_555
H17_8 C26_8 1_555 1_555
C27_8 N3_8 1_555 1_555
H20_8 C27_8 1_555 1_555
C28_8 N3_8 1_555 1_555
H21_8 C28_8 1_555 1_555
H22_8 C28_8 1_555 1_555
H23_8 C28_8 1_555 1_555
O6_4 Zn3_4 1_555 1_555
C13_8 C14_8 1_555 1_555
O6_4 C23_8 1_555 1_555
C3_8 N1_8 1_555 1_555
C5_8 C3_8 1_555 1_555
H1_8 C5_8 1_555 1_555
C10_8 C3_8 1_555 1_555
C12_8 C22_8 1_555 1_555
C18_8 C10_8 1_555 1_555
H9_8 C18_8 1_555 1_555
O5_8 C23_8 1_555 1_555
C21_8 C10_8 1_555 1_555
H12_8 C21_8 1_555 1_555
C22_8 C18_8 1_555 1_555
H13_8 C22_8 1_555 1_555
C23_8 C12_8 1_555 1_555
C24_8 C12_8 1_555 1_555
H14_8 C24_8 1_555 1_555
C21_8 C24_8 1_555 1_555
C1_8 C6_8 1_555 1_555
C8_8 C2_8 1_555 1_555
H2_8 C8_8 1_555 1_555
C11_8 H3_8 1_555 1_555
C20_8 C1_8 1_555 1_555
H11_8 C20_8 1_555 1_555
C6_8 C8_8 1_555 1_555

#END
