
###############################################################################
#
# This file contains modified crystal structure data generated from the
# MOF subset of the Cambridge Structural Database (CSD) v542 
# hosted by the Cambridge Crystallographic Data Centre (CCDC).
#
# This work is licensed under the Creative Commons
# Attribution-NonCommercial-ShareAlike 4.0 International License.
# To view a copy of this license, visit
# http://creativecommons.org/licenses/by-nc-sa/4.0/
# or send a letter to
# Creative Commons, PO Box 1866, Mountain View, CA 94042, USA.
#
# CIF created using the CSD Python API on 22 February 2021
# The structure has been converted into the P1 space group
# The structure has a 3D framework
# The original CSD entry IFIFOV is in the orthorhombic crystal system
# The framework has been calculated to contain at least 10.0% void space
# The void calculation uses a probe of radius 1.32A, grid spacing 0.4
#
###############################################################################

data_IFIFOV
_chemical_formula_moiety         '(C240 H160 Cu16 N48 O32)n'
_symmetry_cell_setting           triclinic
_symmetry_space_group_name_H-M   'P 1'
_symmetry_Int_Tables_number      1
_space_group_name_Hall           'P 1'
loop_
_symmetry_equiv_pos_site_id
_symmetry_equiv_pos_as_xyz
1 x,y,z
_cell_length_a                   18.5893(5)
_cell_length_b                   19.1188(6)
_cell_length_c                   29.1839(15)
_cell_angle_alpha                90
_cell_angle_beta                 90
_cell_angle_gamma                90
_cell_volume                     10372.1
loop_
_atom_site_label
_atom_site_type_symbol
_atom_site_fract_x
_atom_site_fract_y
_atom_site_fract_z
Cu3 Cu 0.32433(2) 0.05679(2) 0.62445(2)
Cu2 Cu 0.67493(2) 0.55727(2) 0.74112(2)
N1 N 0.72366(13) 0.41427(14) 0.72605(12)
N2 N 0.32989(14) 0.06321(14) 0.31204(13)
N3 N 0.66543(14) 0.45658(15) 0.72718(14)
N4 N 0.33396(14) 0.95670(15) 0.63936(13)
N5 N 0.27608(13) 0.91353(14) 0.63966(12)
O1 O 0.62478(15) 0.63566(16) 0.71419(13)
O2 O 0.38056(13) 0.13207(14) 0.64960(13)
O3 O 0.47420(16) 0.06841(15) 0.63011(15)
O4 O 0.53254(18) 0.57045(16) 0.73522(15)
N6 N 0.32994(16) 0.06209(16) 0.55349(14)
C1 C 0.41926(17) 0.79146(18) 0.67289(15)
C2 C 0.38580(19) 0.0321(2) 0.38221(16)
H1 H 0.423548 0.009609 0.397086
C3 C 0.49448(18) 0.17969(18) 0.66350(16)
C4 C 0.60746(17) 0.41854(18) 0.71510(15)
H2 H 0.560737 0.435616 0.712897
C5 C 0.62805(16) 0.34989(17) 0.70641(14)
C6 C 0.37196(17) 0.84942(17) 0.65933(15)
C7 C 0.33287(19) 0.0657(2) 0.40724(17)
C8 C 0.39161(16) 0.91910(18) 0.65136(15)
H3 H 0.438070 0.936675 0.654025
C9 C 0.58216(17) 0.29150(17) 0.69197(15)
C10 C 0.70130(17) 0.35022(16) 0.71410(15)
H4 H 0.731042 0.311334 0.711356
C11 C 0.38208(18) 0.0321(2) 0.33544(16)
H5 H 0.417996 0.009095 0.319159
C12 C 0.2782(2) 0.0947(2) 0.33610(17)
H6 H 0.240500 0.115660 0.320308
C13 C 0.56854(19) 0.17445(19) 0.66251(19)
H7 H 0.589909 0.133339 0.652263
C14 C 0.33311(19) 0.0648(2) 0.45840(17)
C15 C 0.50917(19) 0.68156(19) 0.70094(16)
C16 C 0.5571(2) 0.6243(2) 0.71780(17)
C17 C 0.29879(18) 0.84914(16) 0.65103(15)
H8 H 0.269397 0.809897 0.653024
C18 C 0.49331(19) 0.7973(2) 0.67053(18)
H9 H 0.513462 0.838230 0.659051
C19 C 0.61097(18) 0.2291(2) 0.67646(19)
H10 H 0.660704 0.224135 0.675460
C20 C 0.2782(2) 0.0976(3) 0.38258(19)
H11 H 0.241424 0.120904 0.397878
C21 C 0.39171(19) 0.7296(2) 0.68894(19)
H12 H 0.342028 0.724213 0.690150
C22 C 0.44812(18) 0.12116(19) 0.64660(17)
C23 C 0.53780(19) 0.7444(2) 0.68468(18)
H13 H 0.587416 0.750302 0.683432
C24 C 0.46549(19) 0.2405(2) 0.6791(2)
H14 H 0.415716 0.245155 0.680040
C25 C 0.4348(2) 0.6747(2) 0.70343(19)
H15 H 0.414281 0.633828 0.714681
C26 C 0.50796(19) 0.2955(2) 0.6935(2)
H16 H 0.486218 0.335980 0.704397
C27 C 0.3700(4) 0.0196(4) 0.5302(2)
C28 C 0.2896(4) 0.1036(4) 0.5306(2)
H18 H 0.257597 0.131950 0.546587
C29 C 0.2911(4) 0.1085(4) 0.4834(2)
H19 H 0.263085 0.141964 0.468674
C30 C 0.3734(4) 0.0201(4) 0.4829(2)
Cu4 Cu 0.17567(2) 0.94321(2) 0.62445(2)
Cu5 Cu 0.82507(2) 0.44273(2) 0.74112(2)
Cu6 Cu 0.32507(2) 0.05727(2) 0.24112(2)
N7 N 0.77634(13) 0.58573(14) 0.72605(12)
N8 N 0.67011(14) 0.56321(14) 0.81204(13)
N10 N 0.22392(13) 0.08647(14) 0.63966(12)
H17 H 0.397816 0.987202 0.546111
H20 H 0.403883 0.989085 0.467884
H17_2 H 0.102184 0.012798 0.546111
H20_2 H 0.096117 0.010915 0.467884
N9 N 0.16604(14) 0.04330(15) 0.63936(13)
N2_2 N 0.17011(14) 0.93679(14) 0.31204(13)
O2_2 O 0.11944(13) 0.86793(14) 0.64960(13)
O3_2 O 0.02580(16) 0.93159(15) 0.63011(15)
N6_2 N 0.17006(16) 0.93791(16) 0.55349(14)
C1_2 C 0.08074(17) 0.20854(18) 0.67289(15)
C2_2 C 0.11420(19) 0.9679(2) 0.38221(16)
H1_2 H 0.076452 0.990391 0.397086
C3_2 C 0.00552(18) 0.82031(18) 0.66350(16)
C6_2 C 0.12804(17) 0.15058(17) 0.65933(15)
C7_2 C 0.16713(19) 0.9343(2) 0.40724(17)
C8_2 C 0.10839(16) 0.08090(18) 0.65136(15)
H3_2 H 0.061930 0.063325 0.654025
C11_2 C 0.11792(18) 0.9679(2) 0.33544(16)
H5_2 H 0.082004 0.990905 0.319159
C12_2 C 0.2218(2) 0.9053(2) 0.33610(17)
H6_2 H 0.259500 0.884340 0.320308
C14_2 C 0.16689(19) 0.9352(2) 0.45840(17)
C17_2 C 0.20121(18) 0.15086(16) 0.65103(15)
H8_2 H 0.230603 0.190103 0.653024
C18_2 C 0.00669(19) 0.2027(2) 0.67053(18)
C20_2 C 0.2218(2) 0.9024(3) 0.38258(19)
H11_2 H 0.258576 0.879096 0.397878
C21_2 C 0.10829(19) 0.2704(2) 0.68894(19)
H12_2 H 0.157972 0.275787 0.690150
C22_2 C 0.05188(18) 0.87884(19) 0.64660(17)
C24_2 C 0.03451(19) 0.7595(2) 0.6791(2)
H14_2 H 0.084284 0.754845 0.680040
C25_2 C 0.0652(2) 0.3253(2) 0.70343(19)
H15_2 H 0.085719 0.366172 0.714681
H16_2 H 0.013782 0.664020 0.704397
C27_2 C 0.1300(4) 0.9804(4) 0.5302(2)
C28_2 C 0.2104(4) 0.8964(4) 0.5306(2)
H18_2 H 0.242403 0.868050 0.546587
C29_2 C 0.2089(4) 0.8915(4) 0.4834(2)
H19_2 H 0.236915 0.858036 0.468674
C30_2 C 0.1266(4) 0.9799(4) 0.4829(2)
Cu6_2 Cu 0.17493(2) 0.94273(2) 0.24112(2)
N3_2 N 0.83457(14) 0.54342(15) 0.72718(14)
O1_2 O 0.87522(15) 0.36434(16) 0.71419(13)
O4_2 O 0.96746(18) 0.42955(16) 0.73522(15)
C4_2 C 0.89254(17) 0.58146(18) 0.71510(15)
H2_2 H 0.939263 0.564384 0.712897
C5_2 C 0.87195(16) 0.65011(17) 0.70641(14)
C9_2 C 0.91784(17) 0.70850(17) 0.69197(15)
C10_2 C 0.79870(17) 0.64978(16) 0.71410(15)
H4_2 H 0.768958 0.688666 0.711356
C13_2 C 0.93146(19) 0.82555(19) 0.66251(19)
H7_2 H 0.910091 0.866661 0.652263
C15_2 C 0.99083(19) 0.31844(19) 0.70094(16)
C16_2 C 0.9429(2) 0.3757(2) 0.71780(17)
H9_2 H 0.986538 0.161770 0.659051
C19_2 C 0.88903(18) 0.7709(2) 0.67646(19)
H10_2 H 0.839296 0.775865 0.675460
C23_2 C 0.96220(19) 0.2556(2) 0.68468(18)
H13_2 H 0.912584 0.249698 0.683432
C26_2 C 0.99204(19) 0.7045(2) 0.6935(2)
N8_2 N 0.82989(14) 0.43679(14) 0.81204(13)
N1_2 N 0.22366(13) 0.08573(14) 0.22605(12)
N3_3 N 0.16543(14) 0.04342(15) 0.22718(14)
C4_3 C 0.10746(17) 0.08146(18) 0.21510(15)
H2_3 H 0.060737 0.064384 0.212897
C5_3 C 0.12805(16) 0.15011(17) 0.20641(14)
C9_3 C 0.08216(17) 0.20850(17) 0.19197(15)
C10_3 C 0.20130(17) 0.14978(16) 0.21410(15)
H4_3 H 0.231042 0.188666 0.211356
C13_3 C 0.06854(19) 0.32555(19) 0.16251(19)
H7_3 H 0.089909 0.366661 0.152263
C19_3 C 0.11097(18) 0.2709(2) 0.17646(19)
H10_3 H 0.160704 0.275865 0.175460
C26_3 C 0.00796(19) 0.2045(2) 0.1935(2)
O1_3 O 0.12478(15) 0.86434(16) 0.21419(13)
O4_3 O 0.03254(18) 0.92955(16) 0.23522(15)
C15_3 C 0.00917(19) 0.81844(19) 0.20094(16)
C16_3 C 0.0571(2) 0.8757(2) 0.21780(17)
H9_3 H 0.013462 0.661770 0.159051
C23_3 C 0.03780(19) 0.7556(2) 0.18468(18)
H13_3 H 0.087416 0.749698 0.183432
N7_2 N 0.27634(13) 0.91427(14) 0.22605(12)
Cu1 Cu 0.82433(2) 0.44321(2) 0.12445(2)
O2_3 O 0.88056(13) 0.36793(14) 0.14960(13)
O3_3 O 0.97420(16) 0.43159(15) 0.13011(15)
N6_3 N 0.82994(16) 0.43791(16) 0.05349(14)
C3_3 C 0.99448(18) 0.32031(18) 0.16350(16)
C22_3 C 0.94812(18) 0.37884(19) 0.14660(17)
C24_3 C 0.96549(19) 0.2595(2) 0.1791(2)
H14_3 H 0.915716 0.254845 0.180040
H16_3 H 0.986218 0.164020 0.204397
C27_3 C 0.8700(4) 0.4804(4) 0.0302(2)
H17_3 H 0.897816 0.512798 0.046111
C28_3 C 0.7896(4) 0.3964(4) 0.0306(2)
H18_3 H 0.757597 0.368050 0.046587
N9_2 N 0.83396(14) 0.54330(15) 0.13936(13)
N10_2 N 0.72392(13) 0.41353(14) 0.13966(12)
C2_3 C 0.88580(19) 0.4679(2) 0.88221(16)
H1_3 H 0.923548 0.490391 0.897086
C7_3 C 0.83287(19) 0.4343(2) 0.90724(17)
C11_3 C 0.88208(18) 0.4679(2) 0.83544(16)
H5_3 H 0.917996 0.490905 0.819159
C12_3 C 0.7782(2) 0.4053(2) 0.83610(17)
H6_3 H 0.740500 0.384340 0.820308
C14_3 C 0.83311(19) 0.4352(2) 0.95840(17)
C20_3 C 0.7782(2) 0.4024(3) 0.88258(19)
H11_3 H 0.741424 0.379096 0.897878
C29_3 C 0.7911(4) 0.3915(4) 0.9834(2)
H19_3 H 0.763085 0.358036 0.968674
C30_3 C 0.8734(4) 0.4799(4) 0.9829(2)
H20_3 H 0.903883 0.510915 0.967884
N5_2 N 0.77608(13) 0.58647(14) 0.13966(12)
C1_3 C 0.91926(17) 0.70854(18) 0.17289(15)
C6_3 C 0.87196(17) 0.65058(17) 0.15933(15)
C8_3 C 0.89161(16) 0.58090(18) 0.15136(15)
H3_3 H 0.938070 0.563325 0.154025
C17_3 C 0.79879(18) 0.65086(16) 0.15103(15)
H8_3 H 0.769397 0.690103 0.153024
C18_3 C 0.99331(19) 0.7027(2) 0.17053(18)
C21_3 C 0.89171(19) 0.7704(2) 0.18894(19)
H12_3 H 0.842028 0.775787 0.190150
C25_3 C 0.9348(2) 0.8253(2) 0.20343(19)
H15_3 H 0.914281 0.866172 0.214681
Cu4_2 Cu 0.67567(2) 0.55679(2) 0.12445(2)
N4_2 N 0.66604(14) 0.45670(15) 0.13936(13)
O1_4 O 0.37522(15) 0.13566(16) 0.21419(13)
O4_4 O 0.46746(18) 0.07045(16) 0.23522(15)
C1_4 C 0.58074(17) 0.29146(18) 0.17289(15)
C6_4 C 0.62804(17) 0.34942(17) 0.15933(15)
C8_4 C 0.60839(16) 0.41910(18) 0.15136(15)
H3_4 H 0.561930 0.436675 0.154025
C15_4 C 0.49083(19) 0.18156(19) 0.20094(16)
C16_4 C 0.4429(2) 0.1243(2) 0.21780(17)
C17_4 C 0.70121(18) 0.34914(16) 0.15103(15)
H8_4 H 0.730603 0.309897 0.153024
C18_4 C 0.50669(19) 0.2973(2) 0.17053(18)
H9_4 H 0.486538 0.338230 0.159051
C21_4 C 0.60829(19) 0.2296(2) 0.18894(19)
H12_4 H 0.657972 0.224213 0.190150
C23_4 C 0.46220(19) 0.2444(2) 0.18468(18)
H13_4 H 0.412584 0.250302 0.183432
C25_4 C 0.5652(2) 0.1747(2) 0.20343(19)
H15_4 H 0.585719 0.133828 0.214681
N3_4 N 0.33457(14) 0.95658(15) 0.22718(14)
O2_4 O 0.61944(13) 0.63207(14) 0.14960(13)
O3_4 O 0.52580(16) 0.56841(15) 0.13011(15)
N6_4 N 0.67006(16) 0.56209(16) 0.05349(14)
C3_4 C 0.50552(18) 0.67969(18) 0.16350(16)
C4_4 C 0.39254(17) 0.91854(18) 0.21510(15)
H2_4 H 0.439263 0.935616 0.212897
C5_4 C 0.37195(16) 0.84989(17) 0.20641(14)
C9_4 C 0.41784(17) 0.79150(17) 0.19197(15)
C10_4 C 0.29870(17) 0.85022(16) 0.21410(15)
H4_4 H 0.268958 0.811334 0.211356
C13_4 C 0.43146(19) 0.67445(19) 0.16251(19)
H7_4 H 0.410091 0.633339 0.152263
C19_4 C 0.38903(18) 0.7291(2) 0.17646(19)
H10_4 H 0.339296 0.724135 0.175460
C22_4 C 0.55188(18) 0.62116(19) 0.14660(17)
C24_4 C 0.53451(19) 0.7405(2) 0.1791(2)
H14_4 H 0.584284 0.745155 0.180040
C26_4 C 0.49204(19) 0.7955(2) 0.1935(2)
H16_4 H 0.513782 0.835980 0.204397
C27_4 C 0.6300(4) 0.5196(4) 0.0302(2)
H17_4 H 0.602184 0.487202 0.046111
C28_4 C 0.7104(4) 0.6036(4) 0.0306(2)
H18_4 H 0.742403 0.631950 0.046587
C2_4 C 0.61420(19) 0.5321(2) 0.88221(16)
H1_4 H 0.576452 0.509609 0.897086
C7_4 C 0.66713(19) 0.5657(2) 0.90724(17)
C11_4 C 0.61792(18) 0.5321(2) 0.83544(16)
H5_4 H 0.582004 0.509095 0.819159
C12_4 C 0.7218(2) 0.5947(2) 0.83610(17)
H6_4 H 0.759500 0.615660 0.820308
C14_4 C 0.66689(19) 0.5648(2) 0.95840(17)
C20_4 C 0.7218(2) 0.5976(3) 0.88258(19)
H11_4 H 0.758576 0.620904 0.897878
C29_4 C 0.7089(4) 0.6085(4) 0.9834(2)
H19_4 H 0.736915 0.641964 0.968674
C30_4 C 0.6266(4) 0.5201(4) 0.9829(2)
H20_4 H 0.596117 0.489085 0.967884
N4_3 N 0.16604(14) 0.45670(15) 0.86064(13)
N5_3 N 0.22392(13) 0.41353(14) 0.86034(12)
C1_5 C 0.08074(17) 0.29146(18) 0.82711(15)
C6_5 C 0.12804(17) 0.34942(17) 0.84067(15)
C8_5 C 0.10839(16) 0.41910(18) 0.84864(15)
H3_5 H 0.061930 0.436675 0.845975
C17_5 C 0.20121(18) 0.34914(16) 0.84897(15)
H8_5 H 0.230603 0.309897 0.846976
C18_5 C 0.00669(19) 0.2973(2) 0.82947(18)
C21_5 C 0.10829(19) 0.2296(2) 0.81106(19)
H12_5 H 0.157972 0.224213 0.809850
C25_5 C 0.0652(2) 0.1747(2) 0.79657(19)
H15_5 H 0.085719 0.133828 0.785319
Cu3_2 Cu 0.17567(2) 0.55679(2) 0.87555(2)
Cu4_3 Cu 0.32433(2) 0.44321(2) 0.87555(2)
N2_3 N 0.17011(14) 0.56321(14) 0.18796(13)
C2_5 C 0.11420(19) 0.5321(2) 0.11779(16)
H1_5 H 0.076452 0.509609 0.102914
C7_5 C 0.16713(19) 0.5657(2) 0.09276(17)
C11_5 C 0.11792(18) 0.5321(2) 0.16456(16)
H5_5 H 0.082004 0.509095 0.180841
C12_5 C 0.2218(2) 0.5947(2) 0.16390(17)
H6_5 H 0.259500 0.615660 0.179692
C14_5 C 0.16689(19) 0.5648(2) 0.04160(17)
C20_5 C 0.2218(2) 0.5976(3) 0.11742(19)
H11_5 H 0.258576 0.620904 0.102122
C29_5 C 0.2089(4) 0.6085(4) 0.0166(2)
H19_5 H 0.236915 0.641964 0.031326
C30_5 C 0.1266(4) 0.5201(4) 0.0171(2)
H20_5 H 0.096117 0.489085 0.032116
Cu6_3 Cu 0.17493(2) 0.55727(2) 0.25888(2)
O2_5 O 0.11944(13) 0.63207(14) 0.85040(13)
O3_5 O 0.02580(16) 0.56841(15) 0.86989(15)
N6_5 N 0.17006(16) 0.56209(16) 0.94651(14)
C3_5 C 0.00552(18) 0.67969(18) 0.83650(16)
C22_5 C 0.05188(18) 0.62116(19) 0.85340(17)
C24_5 C 0.03451(19) 0.7405(2) 0.8209(2)
H14_5 H 0.084284 0.745155 0.819960
H16_5 H 0.013782 0.835980 0.795603
C27_5 C 0.1300(4) 0.5196(4) 0.9698(2)
H17_5 H 0.102184 0.487202 0.953889
C28_5 C 0.2104(4) 0.6036(4) 0.9694(2)
H18_5 H 0.242403 0.631950 0.953413
N10_3 N 0.27608(13) 0.58647(14) 0.86034(12)
Cu2_2 Cu 0.82507(2) 0.05727(2) 0.75888(2)
O1_5 O 0.87522(15) 0.13566(16) 0.78581(13)
O4_5 O 0.96746(18) 0.07045(16) 0.76478(15)
C15_5 C 0.99083(19) 0.18156(19) 0.79906(16)
C16_5 C 0.9429(2) 0.1243(2) 0.78220(17)
H9_5 H 0.986538 0.338230 0.840949
C23_5 C 0.96220(19) 0.2444(2) 0.81532(18)
H13_5 H 0.912584 0.250302 0.816568
N7_3 N 0.72366(13) 0.08573(14) 0.77395(12)
N8_3 N 0.82989(14) 0.06321(14) 0.68796(13)
N1_3 N 0.77634(13) 0.91427(14) 0.77395(12)
N3_5 N 0.83457(14) 0.95658(15) 0.77282(14)
C4_5 C 0.89254(17) 0.91854(18) 0.78490(15)
H2_5 H 0.939263 0.935616 0.787103
C5_5 C 0.87195(16) 0.84989(17) 0.79359(14)
C9_5 C 0.91784(17) 0.79150(17) 0.80803(15)
C10_5 C 0.79870(17) 0.85022(16) 0.78590(15)
H4_5 H 0.768958 0.811334 0.788644
C13_5 C 0.93146(19) 0.67445(19) 0.83749(19)
H7_5 H 0.910091 0.633339 0.847737
C19_5 C 0.88903(18) 0.7291(2) 0.82354(19)
H10_5 H 0.839296 0.724135 0.824540
C26_5 C 0.99204(19) 0.7955(2) 0.8065(2)
Cu5_2 Cu 0.67493(2) 0.94273(2) 0.75888(2)
N2_4 N 0.32989(14) 0.43679(14) 0.18796(13)
C2_6 C 0.38580(19) 0.4679(2) 0.11779(16)
H1_6 H 0.423548 0.490391 0.102914
C7_6 C 0.33287(19) 0.4343(2) 0.09276(17)
C11_6 C 0.38208(18) 0.4679(2) 0.16456(16)
H5_6 H 0.417996 0.490905 0.180841
C12_6 C 0.2782(2) 0.4053(2) 0.16390(17)
H6_6 H 0.240500 0.384340 0.179692
C14_6 C 0.33311(19) 0.4352(2) 0.04160(17)
C20_6 C 0.2782(2) 0.4024(3) 0.11742(19)
H11_6 H 0.241424 0.379096 0.102122
C29_6 C 0.2911(4) 0.3915(4) 0.0166(2)
H19_6 H 0.263085 0.358036 0.031326
C30_6 C 0.3734(4) 0.4799(4) 0.0171(2)
H20_6 H 0.403883 0.510915 0.032116
Cu6_4 Cu 0.32507(2) 0.44273(2) 0.25888(2)
N3_6 N 0.66543(14) 0.04342(15) 0.77282(14)
O2_6 O 0.38056(13) 0.36793(14) 0.85040(13)
O3_6 O 0.47420(16) 0.43159(15) 0.86989(15)
N6_6 N 0.32994(16) 0.43791(16) 0.94651(14)
C3_6 C 0.49448(18) 0.32031(18) 0.83650(16)
C4_6 C 0.60746(17) 0.08146(18) 0.78490(15)
H2_6 H 0.560737 0.064384 0.787103
C5_6 C 0.62805(16) 0.15011(17) 0.79359(14)
C9_6 C 0.58216(17) 0.20850(17) 0.80803(15)
C10_6 C 0.70130(17) 0.14978(16) 0.78590(15)
H4_6 H 0.731042 0.188666 0.788644
C13_6 C 0.56854(19) 0.32555(19) 0.83749(19)
H7_6 H 0.589909 0.366661 0.847737
C19_6 C 0.61097(18) 0.2709(2) 0.82354(19)
H10_6 H 0.660704 0.275865 0.824540
C22_6 C 0.44812(18) 0.37884(19) 0.85340(17)
C24_6 C 0.46549(19) 0.2595(2) 0.8209(2)
H14_6 H 0.415716 0.254845 0.819960
C26_6 C 0.50796(19) 0.2045(2) 0.8065(2)
H16_6 H 0.486218 0.164020 0.795603
C27_6 C 0.3700(4) 0.4804(4) 0.9698(2)
H17_6 H 0.397816 0.512798 0.953889
C28_6 C 0.2896(4) 0.3964(4) 0.9694(2)
H18_6 H 0.257597 0.368050 0.953413
N9_3 N 0.33396(14) 0.54330(15) 0.86064(13)
O1_6 O 0.62478(15) 0.86434(16) 0.78581(13)
O4_6 O 0.53254(18) 0.92955(16) 0.76478(15)
C1_6 C 0.41926(17) 0.70854(18) 0.82711(15)
C6_6 C 0.37196(17) 0.65058(17) 0.84067(15)
C8_6 C 0.39161(16) 0.58090(18) 0.84864(15)
H3_6 H 0.438070 0.563325 0.845975
C15_6 C 0.50917(19) 0.81844(19) 0.79906(16)
C16_6 C 0.5571(2) 0.8757(2) 0.78220(17)
C17_6 C 0.29879(18) 0.65086(16) 0.84897(15)
H8_6 H 0.269397 0.690103 0.846976
C18_6 C 0.49331(19) 0.7027(2) 0.82947(18)
H9_6 H 0.513462 0.661770 0.840949
C21_6 C 0.39171(19) 0.7704(2) 0.81106(19)
H12_6 H 0.342028 0.775787 0.809850
C23_6 C 0.53780(19) 0.7556(2) 0.81532(18)
H13_6 H 0.587416 0.749698 0.816568
C25_6 C 0.4348(2) 0.8253(2) 0.79657(19)
H15_6 H 0.414281 0.866172 0.785319
N8_4 N 0.67011(14) 0.93679(14) 0.68796(13)
H17_7 H 0.602184 0.012798 0.453889
H20_7 H 0.596117 0.010915 0.532116
N9_4 N 0.66604(14) 0.04330(15) 0.36064(13)
Cu1_2 Cu 0.67567(2) 0.94321(2) 0.37555(2)
N1_4 N 0.27634(13) 0.58573(14) 0.27395(12)
N3_7 N 0.33457(14) 0.54342(15) 0.27282(14)
N5_4 N 0.72392(13) 0.08647(14) 0.36034(12)
O1_7 O 0.37522(15) 0.36434(16) 0.28581(13)
O2_7 O 0.61944(13) 0.86793(14) 0.35040(13)
O3_7 O 0.52580(16) 0.93159(15) 0.36989(15)
O4_7 O 0.46746(18) 0.42955(16) 0.26478(15)
N6_7 N 0.67006(16) 0.93791(16) 0.44651(14)
C1_7 C 0.58074(17) 0.20854(18) 0.32711(15)
C2_7 C 0.61420(19) 0.9679(2) 0.61779(16)
H1_7 H 0.576452 0.990391 0.602914
C3_7 C 0.50552(18) 0.82031(18) 0.33650(16)
C4_7 C 0.39254(17) 0.58146(18) 0.28490(15)
H2_7 H 0.439263 0.564384 0.287103
C5_7 C 0.37195(16) 0.65011(17) 0.29359(14)
C6_7 C 0.62804(17) 0.15058(17) 0.34067(15)
C7_7 C 0.66713(19) 0.9343(2) 0.59276(17)
C8_7 C 0.60839(16) 0.08090(18) 0.34864(15)
H3_7 H 0.561930 0.063325 0.345975
C9_7 C 0.41784(17) 0.70850(17) 0.30803(15)
C10_7 C 0.29870(17) 0.64978(16) 0.28590(15)
H4_7 H 0.268958 0.688666 0.288644
C11_7 C 0.61792(18) 0.9679(2) 0.66456(16)
H5_7 H 0.582004 0.990905 0.680841
C12_7 C 0.7218(2) 0.9053(2) 0.66390(17)
H6_7 H 0.759500 0.884340 0.679692
C13_7 C 0.43146(19) 0.82555(19) 0.33749(19)
H7_7 H 0.410091 0.866661 0.347737
C14_7 C 0.66689(19) 0.9352(2) 0.54160(17)
C15_7 C 0.49083(19) 0.31844(19) 0.29906(16)
C16_7 C 0.4429(2) 0.3757(2) 0.28220(17)
C17_7 C 0.70121(18) 0.15086(16) 0.34897(15)
H8_7 H 0.730603 0.190103 0.346976
C18_7 C 0.50669(19) 0.2027(2) 0.32947(18)
H9_7 H 0.486538 0.161770 0.340949
C19_7 C 0.38903(18) 0.7709(2) 0.32354(19)
H10_7 H 0.339296 0.775865 0.324540
C20_7 C 0.7218(2) 0.9024(3) 0.61742(19)
H11_7 H 0.758576 0.879096 0.602122
C21_7 C 0.60829(19) 0.2704(2) 0.31106(19)
H12_7 H 0.657972 0.275787 0.309850
C22_7 C 0.55188(18) 0.87884(19) 0.35340(17)
C23_7 C 0.46220(19) 0.2556(2) 0.31532(18)
H13_7 H 0.412584 0.249698 0.316568
C24_7 C 0.53451(19) 0.7595(2) 0.3209(2)
H14_7 H 0.584284 0.754845 0.319960
C25_7 C 0.5652(2) 0.3253(2) 0.29657(19)
H15_7 H 0.585719 0.366172 0.285319
C26_7 C 0.49204(19) 0.7045(2) 0.3065(2)
H16_7 H 0.513782 0.664020 0.295603
C27_7 C 0.6300(4) 0.9804(4) 0.4698(2)
C28_7 C 0.7104(4) 0.8964(4) 0.4694(2)
H18_7 H 0.742403 0.868050 0.453413
C29_7 C 0.7089(4) 0.8915(4) 0.5166(2)
H19_7 H 0.736915 0.858036 0.531326
C30_7 C 0.6266(4) 0.9799(4) 0.5171(2)
Cu4_4 Cu 0.82433(2) 0.05679(2) 0.37555(2)
N7_4 N 0.22366(13) 0.41427(14) 0.27395(12)
N10_4 N 0.77608(13) 0.91353(14) 0.36034(12)
N3_8 N 0.16543(14) 0.45658(15) 0.27282(14)
O1_8 O 0.12478(15) 0.63566(16) 0.28581(13)
O4_8 O 0.03254(18) 0.57045(16) 0.26478(15)
C4_8 C 0.10746(17) 0.41854(18) 0.28490(15)
H2_8 H 0.060737 0.435616 0.287103
C5_8 C 0.12805(16) 0.34989(17) 0.29359(14)
C9_8 C 0.08216(17) 0.29150(17) 0.30803(15)
C10_8 C 0.20130(17) 0.35022(16) 0.28590(15)
H4_8 H 0.231042 0.311334 0.288644
C13_8 C 0.06854(19) 0.17445(19) 0.33749(19)
H7_8 H 0.089909 0.133339 0.347737
C15_8 C 0.00917(19) 0.68156(19) 0.29906(16)
C16_8 C 0.0571(2) 0.6243(2) 0.28220(17)
H9_8 H 0.013462 0.838230 0.340949
C19_8 C 0.11097(18) 0.2291(2) 0.32354(19)
H10_8 H 0.160704 0.224135 0.324540
C23_8 C 0.03780(19) 0.7444(2) 0.31532(18)
H13_8 H 0.087416 0.750302 0.316568
C26_8 C 0.00796(19) 0.2955(2) 0.3065(2)
N4_4 N 0.83396(14) 0.95670(15) 0.36064(13)
O2_8 O 0.88056(13) 0.13207(14) 0.35040(13)
O3_8 O 0.97420(16) 0.06841(15) 0.36989(15)
N6_8 N 0.82994(16) 0.06209(16) 0.44651(14)
C1_8 C 0.91926(17) 0.79146(18) 0.32711(15)
C2_8 C 0.88580(19) 0.0321(2) 0.61779(16)
H1_8 H 0.923548 0.009609 0.602914
C3_8 C 0.99448(18) 0.17969(18) 0.33650(16)
C6_8 C 0.87196(17) 0.84942(17) 0.34067(15)
C7_8 C 0.83287(19) 0.0657(2) 0.59276(17)
C8_8 C 0.89161(16) 0.91910(18) 0.34864(15)
H3_8 H 0.938070 0.936675 0.345975
C11_8 C 0.88208(18) 0.0321(2) 0.66456(16)
H5_8 H 0.917996 0.009095 0.680841
C12_8 C 0.7782(2) 0.0947(2) 0.66390(17)
H6_8 H 0.740500 0.115660 0.679692
C14_8 C 0.83311(19) 0.0648(2) 0.54160(17)
C17_8 C 0.79879(18) 0.84914(16) 0.34897(15)
H8_8 H 0.769397 0.809897 0.346976
C18_8 C 0.99331(19) 0.7973(2) 0.32947(18)
C20_8 C 0.7782(2) 0.0976(3) 0.61742(19)
H11_8 H 0.741424 0.120904 0.602122
C21_8 C 0.89171(19) 0.7296(2) 0.31106(19)
H12_8 H 0.842028 0.724213 0.309850
C22_8 C 0.94812(18) 0.12116(19) 0.35340(17)
C24_8 C 0.96549(19) 0.2405(2) 0.3209(2)
H14_8 H 0.915716 0.245155 0.319960
C25_8 C 0.9348(2) 0.6747(2) 0.29657(19)
H15_8 H 0.914281 0.633828 0.285319
H16_8 H 0.986218 0.335980 0.295603
C27_8 C 0.8700(4) 0.0196(4) 0.4698(2)
C28_8 C 0.7896(4) 0.1036(4) 0.4694(2)
H18_8 H 0.757597 0.131950 0.453413
C29_8 C 0.7911(4) 0.1085(4) 0.5166(2)
H19_8 H 0.763085 0.141964 0.531326
C30_8 C 0.8734(4) 0.0201(4) 0.5171(2)
H17_8 H 0.897816 0.987202 0.453889
H20_8 H 0.903883 0.989085 0.532116
loop_
_geom_bond_atom_site_label_1
_geom_bond_atom_site_label_2
_geom_bond_site_symmetry_1
_geom_bond_site_symmetry_2
Cu3 O2 1_555 1_555
Cu2 N3 1_555 1_555
N1 N3 1_555 1_555
N2 C11 1_555 1_555
N3 C4 1_555 1_555
N4 N5 1_555 1_555
N5 C17 1_555 1_555
O1 Cu2 1_555 1_555
O2 C22 1_555 1_555
O3 Cu3 1_555 1_555
O4 Cu2 1_555 1_555
N6 Cu3 1_555 1_555
C1 C6 1_555 1_555
C2 H1 1_555 1_555
C3 C13 1_555 1_555
C4 H2 1_555 1_555
C5 C4 1_555 1_555
C6 C8 1_555 1_555
C7 C2 1_555 1_555
C8 N4 1_555 1_555
H3 C8 1_555 1_555
C9 C5 1_555 1_555
C10 N1 1_555 1_555
H4 C10 1_555 1_555
C11 C2 1_555 1_555
H5 C11 1_555 1_555
C12 N2 1_555 1_555
H6 C12 1_555 1_555
C13 H7 1_555 1_555
C14 C7 1_555 1_555
C15 C16 1_555 1_555
C16 O1 1_555 1_555
C17 C6 1_555 1_555
H8 C17 1_555 1_555
C18 C1 1_555 1_555
H9 C18 1_555 1_555
C19 C9 1_555 1_555
H10 C19 1_555 1_555
C20 C7 1_555 1_555
H11 C20 1_555 1_555
C21 C1 1_555 1_555
H12 C21 1_555 1_555
C22 O3 1_555 1_555
C23 C15 1_555 1_555
H13 C23 1_555 1_555
C24 C3 1_555 1_555
H14 C24 1_555 1_555
C25 C15 1_555 1_555
H15 C25 1_555 1_555
C26 C9 1_555 1_555
H16 C26 1_555 1_555
C27 N6 1_555 1_555
C28 N6 1_555 1_555
H18 C28 1_555 1_555
C29 C14 1_555 1_555
H19 C29 1_555 1_555
C30 C14 1_555 1_555
Cu4 N5 1_555 1_555
Cu5 N1 1_555 1_555
Cu6 N2 1_555 1_555
N7 Cu2 1_555 1_555
N8 Cu2 1_555 1_555
N10 Cu3 1_555 1_555
O4 C16 1_555 1_555
C3 C22 1_555 1_555
C5 C10 1_555 1_555
C12 C20 1_555 1_555
C13 C19 1_555 1_555
C18 C23 1_555 1_555
C21 C25 1_555 1_555
C24 C26 1_555 1_555
C27 C30 1_555 1_555
C28 C29 1_555 1_555
Cu4 O2_2 1_555 1_555
N2_2 C11_2 1_555 1_555
N9 N10 1_555 1_555
N10 C17_2 1_555 1_555
O2_2 C22_2 1_555 1_555
O3_2 Cu4 1_555 1_555
N6_2 Cu4 1_555 1_555
C1_2 C6_2 1_555 1_555
C2_2 H1_2 1_555 1_555
C6_2 C8_2 1_555 1_555
C7_2 C2_2 1_555 1_555
C8_2 N9 1_555 1_555
H3_2 C8_2 1_555 1_555
C11_2 C2_2 1_555 1_555
H5_2 C11_2 1_555 1_555
C12_2 N2_2 1_555 1_555
H6_2 C12_2 1_555 1_555
C14_2 C7_2 1_555 1_555
C17_2 C6_2 1_555 1_555
H8_2 C17_2 1_555 1_555
C18_2 C1_2 1_555 1_555
C20_2 C7_2 1_555 1_555
H11_2 C20_2 1_555 1_555
C21_2 C1_2 1_555 1_555
H12_2 C21_2 1_555 1_555
C22_2 O3_2 1_555 1_555
C24_2 C3_2 1_555 1_555
H14_2 C24_2 1_555 1_555
H15_2 C25_2 1_555 1_555
C27_2 N6_2 1_555 1_555
C28_2 N6_2 1_555 1_555
H18_2 C28_2 1_555 1_555
C29_2 C14_2 1_555 1_555
H19_2 C29_2 1_555 1_555
C30_2 C14_2 1_555 1_555
Cu6_2 N2_2 1_555 1_555
C3_2 C22_2 1_555 1_555
C12_2 C20_2 1_555 1_555
C21_2 C25_2 1_555 1_555
C27_2 C30_2 1_555 1_555
C28_2 C29_2 1_555 1_555
Cu5 N3_2 1_555 1_555
N7 N3_2 1_555 1_555
N3_2 C4_2 1_555 1_555
O1_2 Cu5 1_555 1_555
O4_2 Cu5 1_555 1_555
C4_2 H2_2 1_555 1_555
C5_2 C4_2 1_555 1_555
C9_2 C5_2 1_555 1_555
C10_2 N7 1_555 1_555
H4_2 C10_2 1_555 1_555
C13_2 H7_2 1_555 1_555
C15_2 C16_2 1_555 1_555
C16_2 O1_2 1_555 1_555
C19_2 C9_2 1_555 1_555
H10_2 C19_2 1_555 1_555
C23_2 C15_2 1_555 1_555
H13_2 C23_2 1_555 1_555
C26_2 C9_2 1_555 1_555
N8_2 Cu5 1_555 1_555
O4_2 C16_2 1_555 1_555
C5_2 C10_2 1_555 1_555
C13_2 C19_2 1_555 1_555
N1_2 N3_3 1_555 1_555
N3_3 C4_3 1_555 1_555
C4_3 H2_3 1_555 1_555
C5_3 C4_3 1_555 1_555
C9_3 C5_3 1_555 1_555
C10_3 N1_2 1_555 1_555
H4_3 C10_3 1_555 1_555
C13_3 H7_3 1_555 1_555
C19_3 C9_3 1_555 1_555
H10_3 C19_3 1_555 1_555
C26_3 C9_3 1_555 1_555
Cu6 N1_2 1_555 1_555
C5_3 C10_3 1_555 1_555
C13_3 C19_3 1_555 1_555
O1_3 Cu6_2 1_555 1_555
O4_3 Cu6_2 1_555 1_555
C15_3 C16_3 1_555 1_555
C16_3 O1_3 1_555 1_555
C23_3 C15_3 1_555 1_555
H13_3 C23_3 1_555 1_555
N7_2 Cu6_2 1_555 1_555
O4_3 C16_3 1_555 1_555
Cu1 O2_3 1_555 1_555
O2_3 C22_3 1_555 1_555
O3_3 Cu1 1_555 1_555
N6_3 Cu1 1_555 1_555
C22_3 O3_3 1_555 1_555
C24_3 C3_3 1_555 1_555
H14_3 C24_3 1_555 1_555
C27_3 N6_3 1_555 1_555
H17_3 C27_3 1_555 1_555
C28_3 N6_3 1_555 1_555
H18_3 C28_3 1_555 1_555
N9_2 Cu1 1_555 1_555
N10_2 Cu1 1_555 1_555
C3_3 C22_3 1_555 1_555
N8_2 C11_3 1_555 1_555
C2_3 H1_3 1_555 1_555
C7_3 C2_3 1_555 1_555
C11_3 C2_3 1_555 1_555
H5_3 C11_3 1_555 1_555
C12_3 N8_2 1_555 1_555
H6_3 C12_3 1_555 1_555
C14_3 C7_3 1_555 1_555
C20_3 C7_3 1_555 1_555
H11_3 C20_3 1_555 1_555
C29_3 C14_3 1_555 1_555
H19_3 C29_3 1_555 1_555
C30_3 C14_3 1_555 1_555
H20_3 C30_3 1_555 1_555
C12_3 C20_3 1_555 1_555
N9_2 N5_2 1_555 1_555
N5_2 C17_3 1_555 1_555
C1_3 C6_3 1_555 1_555
C6_3 C8_3 1_555 1_555
C8_3 N9_2 1_555 1_555
H3_3 C8_3 1_555 1_555
C17_3 C6_3 1_555 1_555
H8_3 C17_3 1_555 1_555
C18_3 C1_3 1_555 1_555
C21_3 C1_3 1_555 1_555
H12_3 C21_3 1_555 1_555
H15_3 C25_3 1_555 1_555
Cu4_2 N5_2 1_555 1_555
C21_3 C25_3 1_555 1_555
N4_2 N10_2 1_555 1_555
N10_2 C17_4 1_555 1_555
O1_4 Cu6 1_555 1_555
O4_4 Cu6 1_555 1_555
C1_4 C6_4 1_555 1_555
C6_4 C8_4 1_555 1_555
C8_4 N4_2 1_555 1_555
H3_4 C8_4 1_555 1_555
C15_4 C16_4 1_555 1_555
C16_4 O1_4 1_555 1_555
C17_4 C6_4 1_555 1_555
H8_4 C17_4 1_555 1_555
C18_4 C1_4 1_555 1_555
H9_4 C18_4 1_555 1_555
C21_4 C1_4 1_555 1_555
H12_4 C21_4 1_555 1_555
C23_4 C15_4 1_555 1_555
H13_4 C23_4 1_555 1_555
C25_4 C15_4 1_555 1_555
H15_4 C25_4 1_555 1_555
Cu4_2 N4_2 1_555 1_555
O4_4 C16_4 1_555 1_555
C18_4 C23_4 1_555 1_555
C21_4 C25_4 1_555 1_555
Cu4_2 O2_4 1_555 1_555
N7_2 N3_4 1_555 1_555
N3_4 C4_4 1_555 1_555
O2_4 C22_4 1_555 1_555
O3_4 Cu4_2 1_555 1_555
N6_4 Cu4_2 1_555 1_555
C3_4 C13_4 1_555 1_555
C4_4 H2_4 1_555 1_555
C5_4 C4_4 1_555 1_555
C9_4 C5_4 1_555 1_555
C10_4 N7_2 1_555 1_555
H4_4 C10_4 1_555 1_555
C13_4 H7_4 1_555 1_555
C19_4 C9_4 1_555 1_555
H10_4 C19_4 1_555 1_555
C22_4 O3_4 1_555 1_555
C24_4 C3_4 1_555 1_555
H14_4 C24_4 1_555 1_555
C26_4 C9_4 1_555 1_555
H16_4 C26_4 1_555 1_555
C27_4 N6_4 1_555 1_555
H17_4 C27_4 1_555 1_555
C28_4 N6_4 1_555 1_555
H18_4 C28_4 1_555 1_555
C3_4 C22_4 1_555 1_555
C5_4 C10_4 1_555 1_555
C13_4 C19_4 1_555 1_555
C24_4 C26_4 1_555 1_555
N8 C11_4 1_555 1_555
C2_4 H1_4 1_555 1_555
C7_4 C2_4 1_555 1_555
C11_4 C2_4 1_555 1_555
H5_4 C11_4 1_555 1_555
C12_4 N8 1_555 1_555
H6_4 C12_4 1_555 1_555
C14_4 C7_4 1_555 1_555
C20_4 C7_4 1_555 1_555
H11_4 C20_4 1_555 1_555
C29_4 C14_4 1_555 1_555
H19_4 C29_4 1_555 1_555
C30_4 C14_4 1_555 1_555
H20_4 C30_4 1_555 1_555
C12_4 C20_4 1_555 1_555
N4_3 N5_3 1_555 1_555
N5_3 C17_5 1_555 1_555
C1_5 C6_5 1_555 1_555
C6_5 C8_5 1_555 1_555
C8_5 N4_3 1_555 1_555
H3_5 C8_5 1_555 1_555
C17_5 C6_5 1_555 1_555
H8_5 C17_5 1_555 1_555
C18_5 C1_5 1_555 1_555
C21_5 C1_5 1_555 1_555
H12_5 C21_5 1_555 1_555
H15_5 C25_5 1_555 1_555
Cu3_2 N4_3 1_555 1_555
Cu4_3 N5_3 1_555 1_555
C21_5 C25_5 1_555 1_555
N2_3 C11_5 1_555 1_555
C2_5 H1_5 1_555 1_555
C7_5 C2_5 1_555 1_555
C11_5 C2_5 1_555 1_555
H5_5 C11_5 1_555 1_555
C12_5 N2_3 1_555 1_555
H6_5 C12_5 1_555 1_555
C14_5 C7_5 1_555 1_555
C20_5 C7_5 1_555 1_555
H11_5 C20_5 1_555 1_555
C29_5 C14_5 1_555 1_555
H19_5 C29_5 1_555 1_555
C30_5 C14_5 1_555 1_555
H20_5 C30_5 1_555 1_555
Cu6_3 N2_3 1_555 1_555
C12_5 C20_5 1_555 1_555
Cu3_2 O2_5 1_555 1_555
O2_5 C22_5 1_555 1_555
O3_5 Cu3_2 1_555 1_555
N6_5 Cu3_2 1_555 1_555
C22_5 O3_5 1_555 1_555
C24_5 C3_5 1_555 1_555
H14_5 C24_5 1_555 1_555
C27_5 N6_5 1_555 1_555
H17_5 C27_5 1_555 1_555
C28_5 N6_5 1_555 1_555
H18_5 C28_5 1_555 1_555
N10_3 Cu3_2 1_555 1_555
C3_5 C22_5 1_555 1_555
O1_5 Cu2_2 1_555 1_555
O4_5 Cu2_2 1_555 1_555
C15_5 C16_5 1_555 1_555
C16_5 O1_5 1_555 1_555
C23_5 C15_5 1_555 1_555
H13_5 C23_5 1_555 1_555
N7_3 Cu2_2 1_555 1_555
N8_3 Cu2_2 1_555 1_555
O4_5 C16_5 1_555 1_555
N1_3 N3_5 1_555 1_555
N3_5 C4_5 1_555 1_555
C4_5 H2_5 1_555 1_555
C5_5 C4_5 1_555 1_555
C9_5 C5_5 1_555 1_555
C10_5 N1_3 1_555 1_555
H4_5 C10_5 1_555 1_555
C13_5 H7_5 1_555 1_555
C19_5 C9_5 1_555 1_555
H10_5 C19_5 1_555 1_555
C26_5 C9_5 1_555 1_555
Cu5_2 N1_3 1_555 1_555
C5_5 C10_5 1_555 1_555
C13_5 C19_5 1_555 1_555
N2_4 C11_6 1_555 1_555
C2_6 H1_6 1_555 1_555
C7_6 C2_6 1_555 1_555
C11_6 C2_6 1_555 1_555
H5_6 C11_6 1_555 1_555
C12_6 N2_4 1_555 1_555
H6_6 C12_6 1_555 1_555
C14_6 C7_6 1_555 1_555
C20_6 C7_6 1_555 1_555
H11_6 C20_6 1_555 1_555
C29_6 C14_6 1_555 1_555
H19_6 C29_6 1_555 1_555
C30_6 C14_6 1_555 1_555
H20_6 C30_6 1_555 1_555
Cu6_4 N2_4 1_555 1_555
C12_6 C20_6 1_555 1_555
Cu4_3 O2_6 1_555 1_555
N7_3 N3_6 1_555 1_555
N3_6 C4_6 1_555 1_555
O2_6 C22_6 1_555 1_555
O3_6 Cu4_3 1_555 1_555
N6_6 Cu4_3 1_555 1_555
C3_6 C13_6 1_555 1_555
C4_6 H2_6 1_555 1_555
C5_6 C4_6 1_555 1_555
C9_6 C5_6 1_555 1_555
C10_6 N7_3 1_555 1_555
H4_6 C10_6 1_555 1_555
C13_6 H7_6 1_555 1_555
C19_6 C9_6 1_555 1_555
H10_6 C19_6 1_555 1_555
C22_6 O3_6 1_555 1_555
C24_6 C3_6 1_555 1_555
H14_6 C24_6 1_555 1_555
C26_6 C9_6 1_555 1_555
H16_6 C26_6 1_555 1_555
C27_6 N6_6 1_555 1_555
H17_6 C27_6 1_555 1_555
C28_6 N6_6 1_555 1_555
H18_6 C28_6 1_555 1_555
N9_3 Cu4_3 1_555 1_555
C3_6 C22_6 1_555 1_555
C5_6 C10_6 1_555 1_555
C13_6 C19_6 1_555 1_555
C24_6 C26_6 1_555 1_555
N9_3 N10_3 1_555 1_555
N10_3 C17_6 1_555 1_555
O1_6 Cu5_2 1_555 1_555
O4_6 Cu5_2 1_555 1_555
C1_6 C6_6 1_555 1_555
C6_6 C8_6 1_555 1_555
C8_6 N9_3 1_555 1_555
H3_6 C8_6 1_555 1_555
C15_6 C16_6 1_555 1_555
C16_6 O1_6 1_555 1_555
C17_6 C6_6 1_555 1_555
H8_6 C17_6 1_555 1_555
C18_6 C1_6 1_555 1_555
H9_6 C18_6 1_555 1_555
C21_6 C1_6 1_555 1_555
H12_6 C21_6 1_555 1_555
C23_6 C15_6 1_555 1_555
H13_6 C23_6 1_555 1_555
C25_6 C15_6 1_555 1_555
H15_6 C25_6 1_555 1_555
N8_4 Cu5_2 1_555 1_555
O4_6 C16_6 1_555 1_555
C18_6 C23_6 1_555 1_555
C21_6 C25_6 1_555 1_555
Cu1_2 O2_7 1_555 1_555
Cu6_4 N3_7 1_555 1_555
N1_4 N3_7 1_555 1_555
N8_4 C11_7 1_555 1_555
N3_7 C4_7 1_555 1_555
N9_4 N5_4 1_555 1_555
N5_4 C17_7 1_555 1_555
O1_7 Cu6_4 1_555 1_555
O2_7 C22_7 1_555 1_555
O3_7 Cu1_2 1_555 1_555
O4_7 Cu6_4 1_555 1_555
N6_7 Cu1_2 1_555 1_555
C1_7 C6_7 1_555 1_555
C2_7 H1_7 1_555 1_555
C3_7 C13_7 1_555 1_555
C4_7 H2_7 1_555 1_555
C5_7 C4_7 1_555 1_555
C6_7 C8_7 1_555 1_555
C7_7 C2_7 1_555 1_555
C8_7 N9_4 1_555 1_555
H3_7 C8_7 1_555 1_555
C9_7 C5_7 1_555 1_555
C10_7 N1_4 1_555 1_555
H4_7 C10_7 1_555 1_555
C11_7 C2_7 1_555 1_555
H5_7 C11_7 1_555 1_555
C12_7 N8_4 1_555 1_555
H6_7 C12_7 1_555 1_555
C13_7 H7_7 1_555 1_555
C14_7 C7_7 1_555 1_555
C15_7 C16_7 1_555 1_555
C16_7 O1_7 1_555 1_555
C17_7 C6_7 1_555 1_555
H8_7 C17_7 1_555 1_555
C18_7 C1_7 1_555 1_555
H9_7 C18_7 1_555 1_555
C19_7 C9_7 1_555 1_555
H10_7 C19_7 1_555 1_555
C20_7 C7_7 1_555 1_555
H11_7 C20_7 1_555 1_555
C21_7 C1_7 1_555 1_555
H12_7 C21_7 1_555 1_555
C22_7 O3_7 1_555 1_555
C23_7 C15_7 1_555 1_555
H13_7 C23_7 1_555 1_555
C24_7 C3_7 1_555 1_555
H14_7 C24_7 1_555 1_555
C25_7 C15_7 1_555 1_555
H15_7 C25_7 1_555 1_555
C26_7 C9_7 1_555 1_555
H16_7 C26_7 1_555 1_555
C27_7 N6_7 1_555 1_555
C28_7 N6_7 1_555 1_555
H18_7 C28_7 1_555 1_555
C29_7 C14_7 1_555 1_555
H19_7 C29_7 1_555 1_555
C30_7 C14_7 1_555 1_555
Cu4_4 N5_4 1_555 1_555
Cu6_3 N1_4 1_555 1_555
N7_4 Cu6_4 1_555 1_555
N10_4 Cu1_2 1_555 1_555
O4_7 C16_7 1_555 1_555
C3_7 C22_7 1_555 1_555
C5_7 C10_7 1_555 1_555
C12_7 C20_7 1_555 1_555
C13_7 C19_7 1_555 1_555
C18_7 C23_7 1_555 1_555
C21_7 C25_7 1_555 1_555
C24_7 C26_7 1_555 1_555
C27_7 C30_7 1_555 1_555
C28_7 C29_7 1_555 1_555
Cu6_3 N3_8 1_555 1_555
N7_4 N3_8 1_555 1_555
N3_8 C4_8 1_555 1_555
O1_8 Cu6_3 1_555 1_555
O4_8 Cu6_3 1_555 1_555
C4_8 H2_8 1_555 1_555
C5_8 C4_8 1_555 1_555
C9_8 C5_8 1_555 1_555
C10_8 N7_4 1_555 1_555
H4_8 C10_8 1_555 1_555
C13_8 H7_8 1_555 1_555
C15_8 C16_8 1_555 1_555
C16_8 O1_8 1_555 1_555
C19_8 C9_8 1_555 1_555
H10_8 C19_8 1_555 1_555
C23_8 C15_8 1_555 1_555
H13_8 C23_8 1_555 1_555
C26_8 C9_8 1_555 1_555
O4_8 C16_8 1_555 1_555
C5_8 C10_8 1_555 1_555
C13_8 C19_8 1_555 1_555
Cu4_4 O2_8 1_555 1_555
N8_3 C11_8 1_555 1_555
N4_4 N10_4 1_555 1_555
N10_4 C17_8 1_555 1_555
O2_8 C22_8 1_555 1_555
O3_8 Cu4_4 1_555 1_555
N6_8 Cu4_4 1_555 1_555
C1_8 C6_8 1_555 1_555
C2_8 H1_8 1_555 1_555
C6_8 C8_8 1_555 1_555
C7_8 C2_8 1_555 1_555
C8_8 N4_4 1_555 1_555
H3_8 C8_8 1_555 1_555
C11_8 C2_8 1_555 1_555
H5_8 C11_8 1_555 1_555
C12_8 N8_3 1_555 1_555
H6_8 C12_8 1_555 1_555
C14_8 C7_8 1_555 1_555
C17_8 C6_8 1_555 1_555
H8_8 C17_8 1_555 1_555
C18_8 C1_8 1_555 1_555
C20_8 C7_8 1_555 1_555
H11_8 C20_8 1_555 1_555
C21_8 C1_8 1_555 1_555
H12_8 C21_8 1_555 1_555
C22_8 O3_8 1_555 1_555
C24_8 C3_8 1_555 1_555
H14_8 C24_8 1_555 1_555
H15_8 C25_8 1_555 1_555
C27_8 N6_8 1_555 1_555
C28_8 N6_8 1_555 1_555
H18_8 C28_8 1_555 1_555
C29_8 C14_8 1_555 1_555
H19_8 C29_8 1_555 1_555
C30_8 C14_8 1_555 1_555
C3_8 C22_8 1_555 1_555
C12_8 C20_8 1_555 1_555
C21_8 C25_8 1_555 1_555
C27_8 C30_8 1_555 1_555
C28_8 C29_8 1_555 1_555

#END
