
###############################################################################
#
# This file contains modified crystal structure data generated from the
# MOF subset of the Cambridge Structural Database (CSD) v542 
# hosted by the Cambridge Crystallographic Data Centre (CCDC).
#
# This work is licensed under the Creative Commons
# Attribution-NonCommercial-ShareAlike 4.0 International License.
# To view a copy of this license, visit
# http://creativecommons.org/licenses/by-nc-sa/4.0/
# or send a letter to
# Creative Commons, PO Box 1866, Mountain View, CA 94042, USA.
#
# CIF created using the CSD Python API on 22 February 2021
# The structure has been converted into the P1 space group
# The structure has a 3D framework
# The original CSD entry JIXKAF is in the cubic crystal system
# The framework has been calculated to contain at least 10.0% void space
# The void calculation uses a probe of radius 1.32A, grid spacing 0.4
# H atom positions have been added when not included in the experimental data
#
###############################################################################

data_JIXKAF
_chemical_formula_moiety         '(C320 H416 Cu8 I8 N48 O112 Zr24)n'
_symmetry_cell_setting           triclinic
_symmetry_space_group_name_H-M   'P 1'
_symmetry_Int_Tables_number      1
_space_group_name_Hall           'P 1'
loop_
_symmetry_equiv_pos_site_id
_symmetry_equiv_pos_as_xyz
1 x,y,z
_cell_length_a                   22.7496(3)
_cell_length_b                   22.7496(3)
_cell_length_c                   22.7496(3)
_cell_angle_alpha                90
_cell_angle_beta                 90
_cell_angle_gamma                90
_cell_volume                     11773.9
loop_
_atom_site_label
_atom_site_type_symbol
_atom_site_fract_x
_atom_site_fract_y
_atom_site_fract_z
_atom_site_U_iso_or_equiv
_atom_site_thermal_displace_type
Zr5 Zr -0.000000 0.57713(11) 0.57713(11) 0.0380 Uiso
Zr1 Zr 0.57713(11) -0.000000 0.57713(11) 0.0380 Uiso
O4 O 0.6667(9) -0.000000 0.5469(8) 0.0380 Uiso
C8 C 0.6938(8) 0.000000 0.500000 0.0380 Uiso
C9 C 0.7597(16) 0.000000 0.500000 0.0380 Uiso
C10 C 0.7901(17) -0.000000 0.4473(8) 0.0380 Uiso
C11 C 0.851(2) -0.000000 0.4473(8) 0.0380 Uiso
C12 C 0.881(2) 0.000000 0.500000 0.0380 Uiso
O10 O 0.5469(8) -0.000000 0.6667(9) 0.0380 Uiso
O11 O 0.500000 0.0460(8) 0.5784(7) 0.0380 Uiso
O12 O 0.5784(7) 0.0460(8) 0.500000 0.0380 Uiso
O13 O 0.6056(10) 0.0771(13) 0.6056(10) 0.0380 Uiso
Zr7 Zr 0.57713(11) -0.000000 0.42287(11) 0.0380 Uiso
Zr8 Zr 0.42287(11) -0.000000 0.57713(11) 0.0380 Uiso
C25 C 0.500000 -0.000000 0.6938(8) 0.0380 Uiso
Zr9 Zr 0.500000 0.10908(16) 0.500000 0.0380 Uiso
Zr10 Zr 0.42287(11) -0.000000 0.42287(11) 0.0380 Uiso
O31 O 0.6667(9) 0.000000 0.4531(8) 0.0380 Uiso
O32 O 0.5469(8) 0.000000 0.3333(9) 0.0380 Uiso
O33 O 0.6056(10) 0.0771(13) 0.3944(10) 0.0380 Uiso
O35 O 0.500000 0.0460(8) 0.4216(7) 0.0380 Uiso
O37 O 0.3333(9) -0.000000 0.5469(8) 0.0380 Uiso
O38 O 0.4531(8) -0.000000 0.6667(9) 0.0380 Uiso
O39 O 0.3944(10) 0.0771(13) 0.6056(10) 0.0380 Uiso
O40 O 0.4216(7) 0.0460(8) 0.500000 0.0380 Uiso
C30 C 0.500000 -0.000000 0.7597(16) 0.0380 Uiso
O42 O 0.3333(9) 0.000000 0.4531(8) 0.0380 Uiso
O43 O 0.4531(8) 0.000000 0.3333(9) 0.0380 Uiso
O44 O 0.3944(10) 0.0771(13) 0.3944(10) 0.0380 Uiso
C35 C 0.500000 0.000000 0.3062(8) 0.0380 Uiso
C36 C 0.7901(17) 0.000000 0.5527(8) 0.0380 Uiso
C37 C 0.3062(8) 0.000000 0.500000 0.0380 Uiso
C38 C 0.5527(8) -0.000000 0.7901(17) 0.0380 Uiso
C39 C 0.4473(8) -0.000000 0.7901(17) 0.0380 Uiso
C48 C 0.500000 -0.000000 0.2403(16) 0.0380 Uiso
C49 C 0.851(2) 0.000000 0.5527(8) 0.0380 Uiso
C50 C 0.2403(16) 0.000000 0.500000 0.0380 Uiso
C51 C 0.5527(8) -0.000000 0.851(2) 0.0380 Uiso
C52 C 0.4473(8) -0.000000 0.851(2) 0.0380 Uiso
C61 C 0.5527(8) 0.000000 0.2099(17) 0.0380 Uiso
C62 C 0.4473(8) 0.000000 0.2099(17) 0.0380 Uiso
C63 C 0.2099(17) 0.000000 0.5527(8) 0.0380 Uiso
C64 C 0.2099(17) -0.000000 0.4473(8) 0.0380 Uiso
C65 C 0.500000 -0.000000 0.881(2) 0.0380 Uiso
C69 C 0.5527(8) 0.000000 0.149(2) 0.0380 Uiso
C70 C 0.4473(8) 0.000000 0.149(2) 0.0380 Uiso
C71 C 0.149(2) 0.000000 0.5527(8) 0.0380 Uiso
C72 C 0.149(2) -0.000000 0.4473(8) 0.0380 Uiso
C73 C 0.500000 0.000000 0.119(2) 0.0380 Uiso
C74 C 0.119(2) 0.000000 0.500000 0.0380 Uiso
H7 H 0.875061 3.08149e-33 0.405917 . .
H17 H 0.928869 0 0.5 . .
H22 H 0.766158 -6.16298e-33 0.405849 . .
H23 H 0.766158 -6.16298e-33 0.594151 . .
H24 H 0.594151 0 0.766158 . .
H25 H 0.405849 0 0.766158 . .
H26 H 0.405917 0 0.875061 . .
H30 H 0.405849 0 0.233842 . .
H31 H 0.594083 0 0.875061 . .
H32 H 0.233842 0 0.594151 . .
H33 H 0.594151 0 0.233842 . .
H43 H 0.5 -1.11022e-16 0.928869 . .
H44 H 0.233842 -3.08149e-33 0.405849 . .
H55 H 0.875061 -6.16298e-33 0.594083 . .
H60 H 0.594083 -1.54074e-33 0.124939 . .
H61 H 0.071131 0 0.5 . .
H63 H 0.124939 3.08149e-33 0.405917 . .
H64 H 0.5 0 0.071131 . .
H65 H 0.124939 -6.16298e-33 0.594083 . .
H66 H 0.405917 -1.54074e-33 0.124939 . .
Zr3 Zr 0.57713(11) 0.57713(11) 0.000000 0.0380 Uiso
O20 O 0.6056(10) 0.6056(10) 0.0771(13) 0.0380 Uiso
O21 O 0.500000 0.5784(7) 0.0460(8) 0.0380 Uiso
O22 O 0.5784(7) 0.500000 0.0460(8) 0.0380 Uiso
O24 O 0.5469(8) 0.6667(9) 0.000000 0.0380 Uiso
O25 O 0.6667(9) 0.5469(8) 0.000000 0.0380 Uiso
Zr11 Zr 0.42287(11) 0.57713(11) 0.000000 0.0380 Uiso
Zr12 Zr 0.57713(11) 0.42287(11) 0.000000 0.0380 Uiso
Zr13 Zr 0.42287(11) 0.42287(11) 0.000000 0.0380 Uiso
I1 I 0.8096(5) 0.8096(5) 0.8096(5) 0.0253 Uiso
Cu1 Cu 0.7487(4) 0.7487(4) 0.7487(4) 0.0253 Uiso
N1 N 0.6886(7) 0.7735(7) 0.6886(7) 0.0380 Uiso
C1 C 0.6692(7) 0.8284(9) 0.6692(7) 0.0380 Uiso
N2 N 0.6576(5) 0.7306(7) 0.6576(5) 0.0380 Uiso
C2 C 0.6264(7) 0.8194(9) 0.6264(7) 0.0380 Uiso
C3 C 0.6933(9) 0.8838(13) 0.6933(9) 0.0380 Uiso
C4 C 0.6192(7) 0.7590(7) 0.6192(7) 0.0380 Uiso
C5 C 0.6694(4) 0.6694(4) 0.6694(4) 0.0380 Uiso
C6 C 0.5930(9) 0.8676(11) 0.5930(9) 0.0380 Uiso
C7 C 0.5796(8) 0.7261(10) 0.5796(8) 0.0380 Uiso
O1 O 0.6056(10) 0.9229(13) 0.6056(10) 0.0380 Uiso
O2 O 0.5536(9) 0.8508(13) 0.5536(9) 0.0380 Uiso
Zr1_2 Zr 0.57713(11) 1.000000 0.57713(11) 0.0380 Uiso
Zr2 Zr 0.500000 0.89092(16) 0.500000 0.0380 Uiso
O3 O 0.5784(7) 0.9540(8) 0.500000 0.0380 Uiso
O4_2 O 0.6667(9) 1.000000 0.5469(8) 0.0380 Uiso
C8_2 C 0.6938(8) 1.000000 0.500000 0.0380 Uiso
C9_2 C 0.7597(16) 1.000000 0.500000 0.0380 Uiso
C10_2 C 0.7901(17) 1.000000 0.4473(8) 0.0380 Uiso
C11_2 C 0.851(2) 1.000000 0.4473(8) 0.0380 Uiso
C12_2 C 0.881(2) 1.000000 0.500000 0.0380 Uiso
N3 N 0.6886(7) 0.6886(7) 0.7735(7) 0.0380 Uiso
N4 N 0.7735(7) 0.6886(7) 0.6886(7) 0.0380 Uiso
C13 C 0.6692(7) 0.6692(7) 0.8284(9) 0.0380 Uiso
N5 N 0.6576(5) 0.6576(5) 0.7306(7) 0.0380 Uiso
C14 C 0.8284(9) 0.6692(7) 0.6692(7) 0.0380 Uiso
N6 N 0.7306(7) 0.6576(5) 0.6576(5) 0.0380 Uiso
C15 C 0.6264(7) 0.6264(7) 0.8194(9) 0.0380 Uiso
C16 C 0.6933(9) 0.6933(9) 0.8838(13) 0.0380 Uiso
C17 C 0.6192(7) 0.6192(7) 0.7590(7) 0.0380 Uiso
C18 C 0.8194(9) 0.6264(7) 0.6264(7) 0.0380 Uiso
C19 C 0.8838(13) 0.6933(9) 0.6933(9) 0.0380 Uiso
C20 C 0.7590(7) 0.6192(7) 0.6192(7) 0.0380 Uiso
C21 C 0.5930(9) 0.5930(9) 0.8676(11) 0.0380 Uiso
C22 C 0.5796(8) 0.5796(8) 0.7261(10) 0.0380 Uiso
C23 C 0.8676(11) 0.5930(9) 0.5930(9) 0.0380 Uiso
C24 C 0.7261(10) 0.5796(8) 0.5796(8) 0.0380 Uiso
O5 O 0.6056(10) 0.6056(10) 0.9229(13) 0.0380 Uiso
O6 O 0.5536(9) 0.5536(9) 0.8508(13) 0.0380 Uiso
O7 O 0.9229(13) 0.6056(10) 0.6056(10) 0.0380 Uiso
O8 O 0.8508(13) 0.5536(9) 0.5536(9) 0.0380 Uiso
Zr3_2 Zr 0.57713(11) 0.57713(11) 1.000000 0.0380 Uiso
Zr4 Zr 0.500000 0.500000 0.89092(16) 0.0380 Uiso
Zr5_2 Zr 1.000000 0.57713(11) 0.57713(11) 0.0380 Uiso
Zr6 Zr 0.89092(16) 0.500000 0.500000 0.0380 Uiso
O9 O 0.500000 0.9540(8) 0.5784(7) 0.0380 Uiso
O10_2 O 0.5469(8) 1.000000 0.6667(9) 0.0380 Uiso
O14 O 0.4464(9) 0.8508(13) 0.4464(9) 0.0380 Uiso
O15 O 0.4464(9) 0.8508(13) 0.5536(9) 0.0380 Uiso
O16 O 0.4216(7) 0.9540(8) 0.500000 0.0380 Uiso
O17 O 0.500000 0.9540(8) 0.4216(7) 0.0380 Uiso
O18 O 0.5536(9) 0.8508(13) 0.4464(9) 0.0380 Uiso
O19 O 0.500000 0.5784(7) 0.9540(8) 0.0380 Uiso
O23 O 0.5784(7) 0.500000 0.9540(8) 0.0380 Uiso
O24_2 O 0.5469(8) 0.6667(9) 1.000000 0.0380 Uiso
O25_2 O 0.6667(9) 0.5469(8) 1.000000 0.0380 Uiso
O26 O 0.4464(9) 0.4464(9) 0.8508(13) 0.0380 Uiso
O27 O 0.4216(7) 0.500000 0.9540(8) 0.0380 Uiso
O28 O 0.4464(9) 0.5536(9) 0.8508(13) 0.0380 Uiso
O29 O 0.500000 0.4216(7) 0.9540(8) 0.0380 Uiso
O30 O 0.5536(9) 0.4464(9) 0.8508(13) 0.0380 Uiso
Zr7_2 Zr 0.57713(11) 1.000000 0.42287(11) 0.0380 Uiso
Zr8_2 Zr 0.42287(11) 1.000000 0.57713(11) 0.0380 Uiso
C25_2 C 0.500000 1.000000 0.6938(8) 0.0380 Uiso
C26 C 0.4070(9) 0.8676(11) 0.4070(9) 0.0380 Uiso
C27 C 0.4070(9) 0.8676(11) 0.5930(9) 0.0380 Uiso
Zr10_2 Zr 0.42287(11) 1.000000 0.42287(11) 0.0380 Uiso
Zr11_2 Zr 0.42287(11) 0.57713(11) 1.000000 0.0380 Uiso
Zr12_2 Zr 0.57713(11) 0.42287(11) 1.000000 0.0380 Uiso
C28 C 0.4070(9) 0.4070(9) 0.8676(11) 0.0380 Uiso
Zr13_2 Zr 0.42287(11) 0.42287(11) 1.000000 0.0380 Uiso
C29 C 0.4070(9) 0.5930(9) 0.8676(11) 0.0380 Uiso
O31_2 O 0.6667(9) 1.000000 0.4531(8) 0.0380 Uiso
O32_2 O 0.5469(8) 1.000000 0.3333(9) 0.0380 Uiso
O34 O 0.6056(10) 0.9229(13) 0.3944(10) 0.0380 Uiso
O36 O 0.3944(10) 0.9229(13) 0.6056(10) 0.0380 Uiso
O37_2 O 0.3333(9) 1.000000 0.5469(8) 0.0380 Uiso
O38_2 O 0.4531(8) 1.000000 0.6667(9) 0.0380 Uiso
C30_2 C 0.500000 1.000000 0.7597(16) 0.0380 Uiso
O41 O 0.3944(10) 0.9229(13) 0.3944(10) 0.0380 Uiso
C31 C 0.3736(7) 0.8194(9) 0.3736(7) 0.0380 Uiso
C32 C 0.3736(7) 0.8194(9) 0.6264(7) 0.0380 Uiso
O42_2 O 0.3333(9) 1.000000 0.4531(8) 0.0380 Uiso
O43_2 O 0.4531(8) 1.000000 0.3333(9) 0.0380 Uiso
O45 O 0.3944(10) 0.6056(10) 0.9229(13) 0.0380 Uiso
O46 O 0.3944(10) 0.3944(10) 0.9229(13) 0.0380 Uiso
C33 C 0.3736(7) 0.3736(7) 0.8194(9) 0.0380 Uiso
C34 C 0.3736(7) 0.6264(7) 0.8194(9) 0.0380 Uiso
C35_2 C 0.500000 1.000000 0.3062(8) 0.0380 Uiso
C36_2 C 0.7901(17) 1.000000 0.5527(8) 0.0380 Uiso
C37_2 C 0.3062(8) 1.000000 0.500000 0.0380 Uiso
C38_2 C 0.5527(8) 1.000000 0.7901(17) 0.0380 Uiso
C39_2 C 0.4473(8) 1.000000 0.7901(17) 0.0380 Uiso
C40 C 0.3808(7) 0.7590(7) 0.3808(7) 0.0380 Uiso
C41 C 0.3308(7) 0.8284(9) 0.3308(7) 0.0380 Uiso
C42 C 0.3808(7) 0.7590(7) 0.6192(7) 0.0380 Uiso
C43 C 0.3308(7) 0.8284(9) 0.6692(7) 0.0380 Uiso
C44 C 0.3808(7) 0.3808(7) 0.7590(7) 0.0380 Uiso
C45 C 0.3308(7) 0.3308(7) 0.8284(9) 0.0380 Uiso
C46 C 0.3808(7) 0.6192(7) 0.7590(7) 0.0380 Uiso
C47 C 0.3308(7) 0.6692(7) 0.8284(9) 0.0380 Uiso
C48_2 C 0.500000 1.000000 0.2403(16) 0.0380 Uiso
C49_2 C 0.851(2) 1.000000 0.5527(8) 0.0380 Uiso
C50_2 C 0.2403(16) 1.000000 0.500000 0.0380 Uiso
C51_2 C 0.5527(8) 1.000000 0.851(2) 0.0380 Uiso
C52_2 C 0.4473(8) 1.000000 0.851(2) 0.0380 Uiso
C53 C 0.4204(8) 0.7261(10) 0.4204(8) 0.0380 Uiso
N7 N 0.3424(5) 0.7306(7) 0.3424(5) 0.0380 Uiso
N8 N 0.3114(7) 0.7735(7) 0.3114(7) 0.0380 Uiso
C54 C 0.3067(9) 0.8838(13) 0.3067(9) 0.0380 Uiso
C55 C 0.4204(8) 0.7261(10) 0.5796(8) 0.0380 Uiso
N9 N 0.3424(5) 0.7306(7) 0.6576(5) 0.0380 Uiso
N10 N 0.3114(7) 0.7735(7) 0.6886(7) 0.0380 Uiso
C56 C 0.3067(9) 0.8838(13) 0.6933(9) 0.0380 Uiso
C57 C 0.4204(8) 0.4204(8) 0.7261(10) 0.0380 Uiso
N11 N 0.3424(5) 0.3424(5) 0.7306(7) 0.0380 Uiso
N12 N 0.3114(7) 0.3114(7) 0.7735(7) 0.0380 Uiso
C58 C 0.3067(9) 0.3067(9) 0.8838(13) 0.0380 Uiso
C59 C 0.4204(8) 0.5796(8) 0.7261(10) 0.0380 Uiso
N13 N 0.3424(5) 0.6576(5) 0.7306(7) 0.0380 Uiso
N14 N 0.3114(7) 0.6886(7) 0.7735(7) 0.0380 Uiso
C60 C 0.3067(9) 0.6933(9) 0.8838(13) 0.0380 Uiso
C61_2 C 0.5527(8) 1.000000 0.2099(17) 0.0380 Uiso
C62_2 C 0.4473(8) 1.000000 0.2099(17) 0.0380 Uiso
C63_2 C 0.2099(17) 1.000000 0.5527(8) 0.0380 Uiso
C64_2 C 0.2099(17) 1.000000 0.4473(8) 0.0380 Uiso
C65_2 C 0.500000 1.000000 0.881(2) 0.0380 Uiso
C66 C 0.3306(4) 0.6694(4) 0.3306(4) 0.0380 Uiso
Cu2 Cu 0.2513(4) 0.7487(4) 0.2513(4) 0.0253 Uiso
C67 C 0.3306(4) 0.6694(4) 0.6694(4) 0.0380 Uiso
Cu3 Cu 0.2513(4) 0.7487(4) 0.7487(4) 0.0253 Uiso
C68 C 0.3306(4) 0.3306(4) 0.6694(4) 0.0380 Uiso
Cu4 Cu 0.2513(4) 0.2513(4) 0.7487(4) 0.0253 Uiso
C69_2 C 0.5527(8) 1.000000 0.149(2) 0.0380 Uiso
C70_2 C 0.4473(8) 1.000000 0.149(2) 0.0380 Uiso
C71_2 C 0.149(2) 1.000000 0.5527(8) 0.0380 Uiso
C72_2 C 0.149(2) 1.000000 0.4473(8) 0.0380 Uiso
N15 N 0.3424(5) 0.6576(5) 0.2694(7) 0.0380 Uiso
N16 N 0.2694(7) 0.6576(5) 0.3424(5) 0.0380 Uiso
I2 I 0.1904(5) 0.8096(5) 0.1904(5) 0.0253 Uiso
N17 N 0.3114(7) 0.6886(7) 0.2265(7) 0.0380 Uiso
N18 N 0.2265(7) 0.6886(7) 0.3114(7) 0.0380 Uiso
N19 N 0.2694(7) 0.6576(5) 0.6576(5) 0.0380 Uiso
I3 I 0.1904(5) 0.8096(5) 0.8096(5) 0.0253 Uiso
N20 N 0.2265(7) 0.6886(7) 0.6886(7) 0.0380 Uiso
N21 N 0.3424(5) 0.2694(7) 0.6576(5) 0.0380 Uiso
N22 N 0.2694(7) 0.3424(5) 0.6576(5) 0.0380 Uiso
I4 I 0.1904(5) 0.1904(5) 0.8096(5) 0.0253 Uiso
N23 N 0.3114(7) 0.2265(7) 0.6886(7) 0.0380 Uiso
N24 N 0.2265(7) 0.3114(7) 0.6886(7) 0.0380 Uiso
C73_2 C 0.500000 1.000000 0.119(2) 0.0380 Uiso
C74_2 C 0.119(2) 1.000000 0.500000 0.0380 Uiso
C75 C 0.3808(7) 0.6192(7) 0.2410(7) 0.0380 Uiso
C76 C 0.2410(7) 0.6192(7) 0.3808(7) 0.0380 Uiso
C77 C 0.3308(7) 0.6692(7) 0.1716(9) 0.0380 Uiso
C78 C 0.1716(9) 0.6692(7) 0.3308(7) 0.0380 Uiso
C79 C 0.2410(7) 0.6192(7) 0.6192(7) 0.0380 Uiso
C80 C 0.1716(9) 0.6692(7) 0.6692(7) 0.0380 Uiso
C81 C 0.3808(7) 0.2410(7) 0.6192(7) 0.0380 Uiso
C82 C 0.2410(7) 0.3808(7) 0.6192(7) 0.0380 Uiso
C83 C 0.3308(7) 0.1716(9) 0.6692(7) 0.0380 Uiso
C84 C 0.1716(9) 0.3308(7) 0.6692(7) 0.0380 Uiso
C85 C 0.3736(7) 0.6264(7) 0.1806(9) 0.0380 Uiso
C86 C 0.4204(8) 0.5796(8) 0.2739(10) 0.0380 Uiso
C87 C 0.1806(9) 0.6264(7) 0.3736(7) 0.0380 Uiso
C88 C 0.2739(10) 0.5796(8) 0.4204(8) 0.0380 Uiso
C89 C 0.3067(9) 0.6933(9) 0.1162(13) 0.0380 Uiso
C90 C 0.1162(13) 0.6933(9) 0.3067(9) 0.0380 Uiso
C91 C 0.1806(9) 0.6264(7) 0.6264(7) 0.0380 Uiso
C92 C 0.2739(10) 0.5796(8) 0.5796(8) 0.0380 Uiso
C93 C 0.1162(13) 0.6933(9) 0.6933(9) 0.0380 Uiso
C94 C 0.3736(7) 0.1806(9) 0.6264(7) 0.0380 Uiso
C95 C 0.4204(8) 0.2739(10) 0.5796(8) 0.0380 Uiso
C96 C 0.1806(9) 0.3736(7) 0.6264(7) 0.0380 Uiso
C97 C 0.2739(10) 0.4204(8) 0.5796(8) 0.0380 Uiso
C98 C 0.3067(9) 0.1162(13) 0.6933(9) 0.0380 Uiso
C99 C 0.1162(13) 0.3067(9) 0.6933(9) 0.0380 Uiso
C100 C 0.4070(9) 0.5930(9) 0.1324(11) 0.0380 Uiso
C101 C 0.1324(11) 0.5930(9) 0.4070(9) 0.0380 Uiso
C102 C 0.1324(11) 0.5930(9) 0.5930(9) 0.0380 Uiso
C103 C 0.4070(9) 0.1324(11) 0.5930(9) 0.0380 Uiso
C104 C 0.1324(11) 0.4070(9) 0.5930(9) 0.0380 Uiso
O47 O 0.3944(10) 0.6056(10) 0.0771(13) 0.0380 Uiso
O48 O 0.4464(9) 0.5536(9) 0.1492(13) 0.0380 Uiso
O49 O 0.0771(13) 0.6056(10) 0.3944(10) 0.0380 Uiso
O50 O 0.1492(13) 0.5536(9) 0.4464(9) 0.0380 Uiso
O51 O 0.0771(13) 0.6056(10) 0.6056(10) 0.0380 Uiso
O52 O 0.1492(13) 0.5536(9) 0.5536(9) 0.0380 Uiso
O54 O 0.4464(9) 0.1492(13) 0.5536(9) 0.0380 Uiso
O55 O 0.0771(13) 0.3944(10) 0.6056(10) 0.0380 Uiso
O56 O 0.1492(13) 0.4464(9) 0.5536(9) 0.0380 Uiso
Zr15 Zr 0.500000 0.500000 0.10908(16) 0.0380 Uiso
Zr16 Zr -0.000000 0.57713(11) 0.42287(11) 0.0380 Uiso
Zr17 Zr 0.10908(16) 0.500000 0.500000 0.0380 Uiso
Zr21 Zr -0.000000 0.42287(11) 0.57713(11) 0.0380 Uiso
O57 O 0.4216(7) 0.500000 0.0460(8) 0.0380 Uiso
O59 O 0.4464(9) 0.4464(9) 0.1492(13) 0.0380 Uiso
O60 O 0.5536(9) 0.4464(9) 0.1492(13) 0.0380 Uiso
O61 O 0.5536(9) 0.5536(9) 0.1492(13) 0.0380 Uiso
O62 O 0.500000 0.4216(7) 0.0460(8) 0.0380 Uiso
O64 O 0.0460(8) 0.4216(7) 0.500000 0.0380 Uiso
O65 O 0.0460(8) 0.500000 0.5784(7) 0.0380 Uiso
O66 O -0.000000 0.5469(8) 0.6667(9) 0.0380 Uiso
O68 O -0.000000 0.3333(9) 0.5469(8) 0.0380 Uiso
O69 O -0.000000 0.4531(8) 0.6667(9) 0.0380 Uiso
Zr23 Zr -0.000000 0.42287(11) 0.42287(11) 0.0380 Uiso
C105 C -0.000000 0.500000 0.6938(8) 0.0380 Uiso
C106 C 0.000000 0.3062(8) 0.500000 0.0380 Uiso
O72 O 0.000000 0.3333(9) 0.4531(8) 0.0380 Uiso
C107 C -0.000000 0.500000 0.7597(16) 0.0380 Uiso
C108 C -0.000000 0.2403(16) 0.500000 0.0380 Uiso
C109 C -0.000000 0.5527(8) 0.7901(17) 0.0380 Uiso
C110 C -0.000000 0.4473(8) 0.7901(17) 0.0380 Uiso
C111 C -0.000000 0.2099(17) 0.4473(8) 0.0380 Uiso
C112 C -0.000000 0.2099(17) 0.5527(8) 0.0380 Uiso
C113 C -0.000000 0.5527(8) 0.851(2) 0.0380 Uiso
C114 C -0.000000 0.4473(8) 0.851(2) 0.0380 Uiso
C115 C -0.000000 0.149(2) 0.4473(8) 0.0380 Uiso
C116 C -0.000000 0.149(2) 0.5527(8) 0.0380 Uiso
C117 C -0.000000 0.500000 0.881(2) 0.0380 Uiso
C118 C 0.000000 0.119(2) 0.500000 0.0380 Uiso
H1 H 0.74044 0.885566 0.685165 . .
H2 H 0.672031 0.921039 0.672031 . .
H3 H 0.685165 0.885566 0.74044 . .
H4 H 0.550317 0.698561 0.605591 . .
H5 H 0.553707 0.756931 0.553707 . .
H6 H 0.605591 0.698561 0.550317 . .
H7_2 H 0.875061 1 0.405917 . .
H8 H 0.685165 0.74044 0.885566 . .
H9 H 0.672031 0.672031 0.921039 . .
H10 H 0.74044 0.685165 0.885566 . .
H11 H 0.605591 0.550317 0.698561 . .
H12 H 0.553707 0.553707 0.756931 . .
H13 H 0.550317 0.605591 0.698561 . .
H14 H 0.885566 0.685165 0.74044 . .
H15 H 0.921039 0.672031 0.672031 . .
H16 H 0.885566 0.74044 0.685165 . .
H17_2 H 0.928869 1 0.5 . .
H18 H 0.698561 0.605591 0.550317 . .
H19 H 0.756931 0.553707 0.553707 . .
H20 H 0.698561 0.550317 0.605591 . .
H21 H 0.641763 0.641763 0.641763 . .
H22_2 H 0.766158 1 0.405849 . .
H23_2 H 0.766158 1 0.594151 . .
H24_2 H 0.594151 1 0.766158 . .
H25_2 H 0.405849 1 0.766158 . .
H26_2 H 0.405917 1 0.875061 . .
H27 H 0.286741 0.342015 0.909215 . .
H28 H 0.273607 0.273607 0.873742 . .
H29 H 0.342015 0.286741 0.909215 . .
H30_2 H 0.405849 1 0.233842 . .
H31_2 H 0.594083 1 0.875061 . .
H32_2 H 0.233842 1 0.594151 . .
H33_2 H 0.594151 1 0.233842 . .
H34 H 0.342015 0.909215 0.286741 . .
H35 H 0.273607 0.873742 0.273607 . .
H36 H 0.286741 0.909215 0.342015 . .
H37 H 0.465848 0.410573 0.737474 . .
H38 H 0.413964 0.413964 0.679104 . .
H39 H 0.410573 0.465848 0.737474 . .
H40 H 0.410573 0.534152 0.737474 . .
H41 H 0.413964 0.586036 0.679104 . .
H42 H 0.465848 0.589427 0.737474 . .
H43_2 H 0.5 1 0.928869 . .
H44_2 H 0.233842 1 0.405849 . .
H45 H 0.342015 0.713259 0.909215 . .
H46 H 0.273607 0.726393 0.873742 . .
H47 H 0.286741 0.657985 0.909215 . .
H48 H 0.358237 0.641763 0.358237 . .
H49 H 0.465848 0.737474 0.589427 . .
H50 H 0.413964 0.679104 0.586036 . .
H51 H 0.410573 0.737474 0.534152 . .
H52 H 0.286741 0.909215 0.657985 . .
H53 H 0.273607 0.873742 0.726393 . .
H54 H 0.342015 0.909215 0.713259 . .
H55_2 H 0.875061 1 0.594083 . .
H56 H 0.410573 0.737474 0.465848 . .
H57 H 0.413964 0.679104 0.413964 . .
H58 H 0.465848 0.737474 0.410573 . .
H59 H 0.358237 0.641763 0.641763 . .
H60_2 H 0.594083 1 0.124939 . .
H61_2 H 0.071131 1 0.5 . .
H62 H 0.358237 0.358237 0.641763 . .
H63_2 H 0.124939 1 0.405917 . .
H64_2 H 0.5 1 0.071131 . .
H65_2 H 0.124939 1 0.594083 . .
H66_2 H 0.405917 1 0.124939 . .
H67 H 0.314835 0.74044 0.114434 . .
H68 H 0.327969 0.672031 0.0789613 . .
H69 H 0.25956 0.685165 0.114434 . .
H70 H 0.301439 0.605591 0.449683 . .
H71 H 0.243069 0.553707 0.446293 . .
H72 H 0.301439 0.550317 0.394409 . .
H73 H 0.114434 0.314835 0.74044 . .
H74 H 0.0789613 0.327969 0.672031 . .
H75 H 0.114434 0.25956 0.685165 . .
H76 H 0.25956 0.114434 0.685165 . .
H77 H 0.327969 0.0789613 0.672031 . .
H78 H 0.314835 0.114434 0.74044 . .
H79 H 0.114434 0.74044 0.685165 . .
H80 H 0.0789613 0.672031 0.672031 . .
H81 H 0.114434 0.685165 0.74044 . .
H82 H 0.301439 0.394409 0.550317 . .
H83 H 0.243069 0.446293 0.553707 . .
H84 H 0.301439 0.449683 0.605591 . .
H85 H 0.301439 0.550317 0.605591 . .
H86 H 0.243069 0.553707 0.553707 . .
H87 H 0.301439 0.605591 0.550317 . .
H88 H 0.449683 0.301439 0.605591 . .
H89 H 0.446293 0.243069 0.553707 . .
H90 H 0.394409 0.301439 0.550317 . .
H91 H 0.394409 0.550317 0.301439 . .
H92 H 0.446293 0.553707 0.243069 . .
H93 H 0.449683 0.605591 0.301439 . .
H94 H 0.114434 0.685165 0.25956 . .
H95 H 0.0789613 0.672031 0.327969 . .
H96 H 0.114434 0.74044 0.314835 . .
H97 H -1.2326e-32 0.233842 0.405849 . .
H98 H 0 0.5 0.928869 . .
H99 H -4.31408e-32 0.405917 0.875061 . .
H100 H 6.16298e-33 0.071131 0.5 . .
H101 H -1.84889e-32 0.594083 0.875061 . .
H102 H -6.16298e-33 0.233842 0.594151 . .
H103 H -6.16298e-33 0.124939 0.405917 . .
H104 H -1.2326e-32 0.124939 0.594083 . .
H105 H -3.69779e-32 0.594151 0.766158 . .
H106 H 2.46519e-32 0.405849 0.766158 . .
Zr16_2 Zr 1.000000 0.57713(11) 0.42287(11) 0.0380 Uiso
Zr21_2 Zr 1.000000 0.42287(11) 0.57713(11) 0.0380 Uiso
O66_2 O 1.000000 0.5469(8) 0.6667(9) 0.0380 Uiso
O67 O 0.9540(8) 0.500000 0.5784(7) 0.0380 Uiso
O68_2 O 1.000000 0.3333(9) 0.5469(8) 0.0380 Uiso
O69_2 O 1.000000 0.4531(8) 0.6667(9) 0.0380 Uiso
O70 O 0.9229(13) 0.3944(10) 0.6056(10) 0.0380 Uiso
O71 O 0.9540(8) 0.4216(7) 0.500000 0.0380 Uiso
Zr23_2 Zr 1.000000 0.42287(11) 0.42287(11) 0.0380 Uiso
C105_2 C 1.000000 0.500000 0.6938(8) 0.0380 Uiso
C106_2 C 1.000000 0.3062(8) 0.500000 0.0380 Uiso
O72_2 O 1.000000 0.3333(9) 0.4531(8) 0.0380 Uiso
C107_2 C 1.000000 0.500000 0.7597(16) 0.0380 Uiso
C108_2 C 1.000000 0.2403(16) 0.500000 0.0380 Uiso
C109_2 C 1.000000 0.5527(8) 0.7901(17) 0.0380 Uiso
C110_2 C 1.000000 0.4473(8) 0.7901(17) 0.0380 Uiso
C111_2 C 1.000000 0.2099(17) 0.4473(8) 0.0380 Uiso
C112_2 C 1.000000 0.2099(17) 0.5527(8) 0.0380 Uiso
C113_2 C 1.000000 0.5527(8) 0.851(2) 0.0380 Uiso
C114_2 C 1.000000 0.4473(8) 0.851(2) 0.0380 Uiso
C115_2 C 1.000000 0.149(2) 0.4473(8) 0.0380 Uiso
C116_2 C 1.000000 0.149(2) 0.5527(8) 0.0380 Uiso
C117_2 C 1.000000 0.500000 0.881(2) 0.0380 Uiso
C118_2 C 1.000000 0.119(2) 0.500000 0.0380 Uiso
H97_2 H 1 0.233842 0.405849 . .
H98_2 H 1 0.5 0.928869 . .
H99_2 H 1 0.405917 0.875061 . .
H100_2 H 1 0.071131 0.5 . .
H101_2 H 1 0.594083 0.875061 . .
H102_2 H 1 0.233842 0.594151 . .
H103_2 H 1 0.124939 0.405917 . .
H104_2 H 1 0.124939 0.594083 . .
H105_2 H 1 0.594151 0.766158 . .
H106_2 H 1 0.405849 0.766158 . .
O68_3 O 0.000000 0.6667(9) 0.5469(8) 0.0380 Uiso
O71_2 O 0.0460(8) 0.5784(7) 0.500000 0.0380 Uiso
C106_3 C 0.000000 0.6938(8) 0.500000 0.0380 Uiso
O72_3 O 0.000000 0.6667(9) 0.4531(8) 0.0380 Uiso
C108_3 C 0.000000 0.7597(16) 0.500000 0.0380 Uiso
C111_3 C -0.000000 0.7901(17) 0.4473(8) 0.0380 Uiso
C112_3 C 0.000000 0.7901(17) 0.5527(8) 0.0380 Uiso
C115_3 C -0.000000 0.851(2) 0.4473(8) 0.0380 Uiso
C116_3 C -0.000000 0.851(2) 0.5527(8) 0.0380 Uiso
C118_3 C 0.000000 0.881(2) 0.500000 0.0380 Uiso
H97_3 H 3.08149e-33 0.766158 0.405849 . .
H100_3 H -6.16298e-33 0.928869 0.5 . .
H102_3 H 6.16298e-33 0.766158 0.594151 . .
H103_3 H 3.08149e-33 0.875061 0.405917 . .
H104_3 H 0 0.875061 0.594083 . .
O20_2 O 0.3944(10) 0.3944(10) 0.0771(13) 0.0380 Uiso
O24_3 O 0.4531(8) 0.3333(9) 0.000000 0.0380 Uiso
O25_3 O 0.3333(9) 0.4531(8) 0.000000 0.0380 Uiso
O14_2 O 0.5536(9) 0.1492(13) 0.4464(9) 0.0380 Uiso
O15_2 O 0.5536(9) 0.1492(13) 0.5536(9) 0.0380 Uiso
O18_2 O 0.4464(9) 0.1492(13) 0.4464(9) 0.0380 Uiso
O24_4 O 0.4531(8) 0.3333(9) 1.000000 0.0380 Uiso
O25_4 O 0.3333(9) 0.4531(8) 1.000000 0.0380 Uiso
C26_2 C 0.5930(9) 0.1324(11) 0.4070(9) 0.0380 Uiso
C27_2 C 0.5930(9) 0.1324(11) 0.5930(9) 0.0380 Uiso
C29_2 C 0.5930(9) 0.4070(9) 0.8676(11) 0.0380 Uiso
C31_2 C 0.6264(7) 0.1806(9) 0.3736(7) 0.0380 Uiso
C32_2 C 0.6264(7) 0.1806(9) 0.6264(7) 0.0380 Uiso
O45_2 O 0.6056(10) 0.3944(10) 0.9229(13) 0.0380 Uiso
C34_2 C 0.6264(7) 0.3736(7) 0.8194(9) 0.0380 Uiso
C40_2 C 0.6192(7) 0.2410(7) 0.3808(7) 0.0380 Uiso
C41_2 C 0.6692(7) 0.1716(9) 0.3308(7) 0.0380 Uiso
C42_2 C 0.6192(7) 0.2410(7) 0.6192(7) 0.0380 Uiso
C43_2 C 0.6692(7) 0.1716(9) 0.6692(7) 0.0380 Uiso
C46_2 C 0.6192(7) 0.3808(7) 0.7590(7) 0.0380 Uiso
C47_2 C 0.6692(7) 0.3308(7) 0.8284(9) 0.0380 Uiso
C53_2 C 0.5796(8) 0.2739(10) 0.4204(8) 0.0380 Uiso
N7_2 N 0.6576(5) 0.2694(7) 0.3424(5) 0.0380 Uiso
N8_2 N 0.6886(7) 0.2265(7) 0.3114(7) 0.0380 Uiso
C54_2 C 0.6933(9) 0.1162(13) 0.3067(9) 0.0380 Uiso
C55_2 C 0.5796(8) 0.2739(10) 0.5796(8) 0.0380 Uiso
N9_2 N 0.6576(5) 0.2694(7) 0.6576(5) 0.0380 Uiso
N10_2 N 0.6886(7) 0.2265(7) 0.6886(7) 0.0380 Uiso
C56_2 C 0.6933(9) 0.1162(13) 0.6933(9) 0.0380 Uiso
C59_2 C 0.5796(8) 0.4204(8) 0.7261(10) 0.0380 Uiso
N13_2 N 0.6576(5) 0.3424(5) 0.7306(7) 0.0380 Uiso
N14_2 N 0.6886(7) 0.3114(7) 0.7735(7) 0.0380 Uiso
C60_2 C 0.6933(9) 0.3067(9) 0.8838(13) 0.0380 Uiso
C66_2 C 0.6694(4) 0.3306(4) 0.3306(4) 0.0380 Uiso
Cu2_2 Cu 0.7487(4) 0.2513(4) 0.2513(4) 0.0253 Uiso
C67_2 C 0.6694(4) 0.3306(4) 0.6694(4) 0.0380 Uiso
Cu3_2 Cu 0.7487(4) 0.2513(4) 0.7487(4) 0.0253 Uiso
N15_2 N 0.6576(5) 0.3424(5) 0.2694(7) 0.0380 Uiso
N16_2 N 0.7306(7) 0.3424(5) 0.3424(5) 0.0380 Uiso
I2_2 I 0.8096(5) 0.1904(5) 0.1904(5) 0.0253 Uiso
N17_2 N 0.6886(7) 0.3114(7) 0.2265(7) 0.0380 Uiso
N18_2 N 0.7735(7) 0.3114(7) 0.3114(7) 0.0380 Uiso
N19_2 N 0.7306(7) 0.3424(5) 0.6576(5) 0.0380 Uiso
I3_2 I 0.8096(5) 0.1904(5) 0.8096(5) 0.0253 Uiso
N20_2 N 0.7735(7) 0.3114(7) 0.6886(7) 0.0380 Uiso
C75_2 C 0.6192(7) 0.3808(7) 0.2410(7) 0.0380 Uiso
C76_2 C 0.7590(7) 0.3808(7) 0.3808(7) 0.0380 Uiso
C77_2 C 0.6692(7) 0.3308(7) 0.1716(9) 0.0380 Uiso
C78_2 C 0.8284(9) 0.3308(7) 0.3308(7) 0.0380 Uiso
C79_2 C 0.7590(7) 0.3808(7) 0.6192(7) 0.0380 Uiso
C80_2 C 0.8284(9) 0.3308(7) 0.6692(7) 0.0380 Uiso
C85_2 C 0.6264(7) 0.3736(7) 0.1806(9) 0.0380 Uiso
C86_2 C 0.5796(8) 0.4204(8) 0.2739(10) 0.0380 Uiso
C87_2 C 0.8194(9) 0.3736(7) 0.3736(7) 0.0380 Uiso
C88_2 C 0.7261(10) 0.4204(8) 0.4204(8) 0.0380 Uiso
C89_2 C 0.6933(9) 0.3067(9) 0.1162(13) 0.0380 Uiso
C90_2 C 0.8838(13) 0.3067(9) 0.3067(9) 0.0380 Uiso
C91_2 C 0.8194(9) 0.3736(7) 0.6264(7) 0.0380 Uiso
C92_2 C 0.7261(10) 0.4204(8) 0.5796(8) 0.0380 Uiso
C93_2 C 0.8838(13) 0.3067(9) 0.6933(9) 0.0380 Uiso
C100_2 C 0.5930(9) 0.4070(9) 0.1324(11) 0.0380 Uiso
C101_2 C 0.8676(11) 0.4070(9) 0.4070(9) 0.0380 Uiso
C102_2 C 0.8676(11) 0.4070(9) 0.5930(9) 0.0380 Uiso
O47_2 O 0.6056(10) 0.3944(10) 0.0771(13) 0.0380 Uiso
O49_2 O 0.9229(13) 0.3944(10) 0.3944(10) 0.0380 Uiso
O50_2 O 0.8508(13) 0.4464(9) 0.4464(9) 0.0380 Uiso
O52_2 O 0.8508(13) 0.4464(9) 0.5536(9) 0.0380 Uiso
O64_2 O 0.9540(8) 0.5784(7) 0.500000 0.0380 Uiso
O68_4 O 1.000000 0.6667(9) 0.5469(8) 0.0380 Uiso
C106_4 C 1.000000 0.6938(8) 0.500000 0.0380 Uiso
O72_4 O 1.000000 0.6667(9) 0.4531(8) 0.0380 Uiso
C108_4 C 1.000000 0.7597(16) 0.500000 0.0380 Uiso
C111_4 C 1.000000 0.7901(17) 0.4473(8) 0.0380 Uiso
C112_4 C 1.000000 0.7901(17) 0.5527(8) 0.0380 Uiso
C115_4 C 1.000000 0.851(2) 0.4473(8) 0.0380 Uiso
C116_4 C 1.000000 0.851(2) 0.5527(8) 0.0380 Uiso
C118_4 C 1.000000 0.881(2) 0.500000 0.0380 Uiso
H8_2 H 0.314835 0.25956 0.885566 . .
H9_2 H 0.327969 0.327969 0.921039 . .
H10_2 H 0.25956 0.314835 0.885566 . .
H11_2 H 0.394409 0.449683 0.698561 . .
H12_2 H 0.446293 0.446293 0.756931 . .
H13_2 H 0.449683 0.394409 0.698561 . .
H27_2 H 0.713259 0.657985 0.909215 . .
H28_2 H 0.726393 0.726393 0.873742 . .
H29_2 H 0.657985 0.713259 0.909215 . .
H34_2 H 0.657985 0.0907855 0.286741 . .
H35_2 H 0.726393 0.126258 0.273607 . .
H36_2 H 0.713259 0.0907855 0.342015 . .
H37_2 H 0.534152 0.589427 0.737474 . .
H38_2 H 0.586036 0.586036 0.679104 . .
H39_2 H 0.589427 0.534152 0.737474 . .
H40_2 H 0.589427 0.465848 0.737474 . .
H41_2 H 0.586036 0.413964 0.679104 . .
H42_2 H 0.534152 0.410573 0.737474 . .
H45_2 H 0.657985 0.286741 0.909215 . .
H46_2 H 0.726393 0.273607 0.873742 . .
H47_2 H 0.713259 0.342015 0.909215 . .
H48_2 H 0.641763 0.358237 0.358237 . .
H49_2 H 0.534152 0.262526 0.589427 . .
H50_2 H 0.586036 0.320896 0.586036 . .
H51_2 H 0.589427 0.262526 0.534152 . .
H52_2 H 0.713259 0.0907855 0.657985 . .
H53_2 H 0.726393 0.126258 0.726393 . .
H54_2 H 0.657985 0.0907855 0.713259 . .
H56_2 H 0.589427 0.262526 0.465848 . .
H57_2 H 0.586036 0.320896 0.413964 . .
H58_2 H 0.534152 0.262526 0.410573 . .
H59_2 H 0.641763 0.358237 0.641763 . .
H67_2 H 0.685165 0.25956 0.114434 . .
H68_2 H 0.672031 0.327969 0.0789613 . .
H69_2 H 0.74044 0.314835 0.114434 . .
H70_2 H 0.698561 0.394409 0.449683 . .
H71_2 H 0.756931 0.446293 0.446293 . .
H72_2 H 0.698561 0.449683 0.394409 . .
H79_2 H 0.885566 0.25956 0.685165 . .
H80_2 H 0.921039 0.327969 0.672031 . .
H81_2 H 0.885566 0.314835 0.74044 . .
H85_2 H 0.698561 0.449683 0.605591 . .
H86_2 H 0.756931 0.446293 0.553707 . .
H87_2 H 0.698561 0.394409 0.550317 . .
H91_2 H 0.605591 0.449683 0.301439 . .
H92_2 H 0.553707 0.446293 0.243069 . .
H93_2 H 0.550317 0.394409 0.301439 . .
H94_2 H 0.885566 0.314835 0.25956 . .
H95_2 H 0.921039 0.327969 0.327969 . .
H96_2 H 0.885566 0.25956 0.314835 . .
H97_4 H 1 0.766158 0.405849 . .
H100_4 H 1 0.928869 0.5 . .
H102_4 H 1 0.766158 0.594151 . .
H103_4 H 1 0.875061 0.405917 . .
H104_4 H 1 0.875061 0.594083 . .
I1_2 I 0.1904(5) 0.1904(5) 0.1904(5) 0.0253 Uiso
Cu1_2 Cu 0.2513(4) 0.2513(4) 0.2513(4) 0.0253 Uiso
N1_2 N 0.3114(7) 0.3114(7) 0.2265(7) 0.0380 Uiso
C1_2 C 0.3308(7) 0.3308(7) 0.1716(9) 0.0380 Uiso
N2_2 N 0.3424(5) 0.3424(5) 0.2694(7) 0.0380 Uiso
C2_2 C 0.3736(7) 0.3736(7) 0.1806(9) 0.0380 Uiso
C3_2 C 0.3067(9) 0.3067(9) 0.1162(13) 0.0380 Uiso
C4_2 C 0.3808(7) 0.3808(7) 0.2410(7) 0.0380 Uiso
C5_2 C 0.3306(4) 0.3306(4) 0.3306(4) 0.0380 Uiso
C6_2 C 0.4070(9) 0.4070(9) 0.1324(11) 0.0380 Uiso
C7_2 C 0.4204(8) 0.4204(8) 0.2739(10) 0.0380 Uiso
C8_3 C 0.3062(8) 0.500000 0.000000 0.0380 Uiso
C9_3 C 0.2403(16) 0.500000 0.000000 0.0380 Uiso
C10_3 C 0.2099(17) 0.5527(8) 0.000000 0.0380 Uiso
C11_3 C 0.149(2) 0.5527(8) 0.000000 0.0380 Uiso
C12_3 C 0.119(2) 0.500000 0.000000 0.0380 Uiso
N3_2 N 0.3114(7) 0.2265(7) 0.3114(7) 0.0380 Uiso
N4_2 N 0.2265(7) 0.3114(7) 0.3114(7) 0.0380 Uiso
C13_2 C 0.3308(7) 0.1716(9) 0.3308(7) 0.0380 Uiso
N5_2 N 0.3424(5) 0.2694(7) 0.3424(5) 0.0380 Uiso
C14_2 C 0.1716(9) 0.3308(7) 0.3308(7) 0.0380 Uiso
N6_2 N 0.2694(7) 0.3424(5) 0.3424(5) 0.0380 Uiso
C15_2 C 0.3736(7) 0.1806(9) 0.3736(7) 0.0380 Uiso
C16_2 C 0.3067(9) 0.1162(13) 0.3067(9) 0.0380 Uiso
C17_2 C 0.3808(7) 0.2410(7) 0.3808(7) 0.0380 Uiso
C18_2 C 0.1806(9) 0.3736(7) 0.3736(7) 0.0380 Uiso
C19_2 C 0.1162(13) 0.3067(9) 0.3067(9) 0.0380 Uiso
C20_2 C 0.2410(7) 0.3808(7) 0.3808(7) 0.0380 Uiso
C21_2 C 0.4070(9) 0.1324(11) 0.4070(9) 0.0380 Uiso
C22_2 C 0.4204(8) 0.2739(10) 0.4204(8) 0.0380 Uiso
C23_2 C 0.1324(11) 0.4070(9) 0.4070(9) 0.0380 Uiso
C24_2 C 0.2739(10) 0.4204(8) 0.4204(8) 0.0380 Uiso
O7_2 O 0.0771(13) 0.3944(10) 0.3944(10) 0.0380 Uiso
O8_2 O 0.1492(13) 0.4464(9) 0.4464(9) 0.0380 Uiso
C25_3 C 0.500000 0.3062(8) 0.000000 0.0380 Uiso
C26_3 C 0.5930(9) 0.5930(9) 0.1324(11) 0.0380 Uiso
O31_3 O 0.3333(9) 0.5469(8) 0.000000 0.0380 Uiso
O32_3 O 0.4531(8) 0.6667(9) 0.000000 0.0380 Uiso
O37_3 O 0.6667(9) 0.4531(8) 0.000000 0.0380 Uiso
O38_3 O 0.5469(8) 0.3333(9) 0.000000 0.0380 Uiso
C30_3 C 0.500000 0.2403(16) 0.000000 0.0380 Uiso
C31_3 C 0.6264(7) 0.6264(7) 0.1806(9) 0.0380 Uiso
C35_3 C 0.500000 0.6938(8) 0.000000 0.0380 Uiso
C36_3 C 0.2099(17) 0.4473(8) 0.000000 0.0380 Uiso
C37_3 C 0.6938(8) 0.500000 0.000000 0.0380 Uiso
C38_3 C 0.4473(8) 0.2099(17) 0.000000 0.0380 Uiso
C39_3 C 0.5527(8) 0.2099(17) 0.000000 0.0380 Uiso
C40_3 C 0.6192(7) 0.6192(7) 0.2410(7) 0.0380 Uiso
C41_3 C 0.6692(7) 0.6692(7) 0.1716(9) 0.0380 Uiso
C48_3 C 0.500000 0.7597(16) 0.000000 0.0380 Uiso
C49_3 C 0.149(2) 0.4473(8) 0.000000 0.0380 Uiso
C50_3 C 0.7597(16) 0.500000 0.000000 0.0380 Uiso
C51_3 C 0.4473(8) 0.149(2) 0.000000 0.0380 Uiso
C52_3 C 0.5527(8) 0.149(2) 0.000000 0.0380 Uiso
C53_3 C 0.5796(8) 0.5796(8) 0.2739(10) 0.0380 Uiso
N7_3 N 0.6576(5) 0.6576(5) 0.2694(7) 0.0380 Uiso
N8_3 N 0.6886(7) 0.6886(7) 0.2265(7) 0.0380 Uiso
C54_3 C 0.6933(9) 0.6933(9) 0.1162(13) 0.0380 Uiso
C61_3 C 0.4473(8) 0.7901(17) 0.000000 0.0380 Uiso
C62_3 C 0.5527(8) 0.7901(17) 0.000000 0.0380 Uiso
C63_3 C 0.7901(17) 0.4473(8) 0.000000 0.0380 Uiso
C64_3 C 0.7901(17) 0.5527(8) 0.000000 0.0380 Uiso
C65_3 C 0.500000 0.119(2) 0.000000 0.0380 Uiso
C66_3 C 0.6694(4) 0.6694(4) 0.3306(4) 0.0380 Uiso
Cu2_3 Cu 0.7487(4) 0.7487(4) 0.2513(4) 0.0253 Uiso
C69_3 C 0.4473(8) 0.851(2) 0.000000 0.0380 Uiso
C70_3 C 0.5527(8) 0.851(2) 0.000000 0.0380 Uiso
C71_3 C 0.851(2) 0.4473(8) 0.000000 0.0380 Uiso
C72_3 C 0.851(2) 0.5527(8) 0.000000 0.0380 Uiso
N15_3 N 0.6576(5) 0.7306(7) 0.3424(5) 0.0380 Uiso
N16_3 N 0.7306(7) 0.6576(5) 0.3424(5) 0.0380 Uiso
I2_3 I 0.8096(5) 0.8096(5) 0.1904(5) 0.0253 Uiso
N17_3 N 0.6886(7) 0.7735(7) 0.3114(7) 0.0380 Uiso
N18_3 N 0.7735(7) 0.6886(7) 0.3114(7) 0.0380 Uiso
C73_3 C 0.500000 0.881(2) 0.000000 0.0380 Uiso
C74_3 C 0.881(2) 0.500000 0.000000 0.0380 Uiso
C75_3 C 0.6192(7) 0.7590(7) 0.3808(7) 0.0380 Uiso
C76_3 C 0.7590(7) 0.6192(7) 0.3808(7) 0.0380 Uiso
C77_3 C 0.6692(7) 0.8284(9) 0.3308(7) 0.0380 Uiso
C78_3 C 0.8284(9) 0.6692(7) 0.3308(7) 0.0380 Uiso
C85_3 C 0.6264(7) 0.8194(9) 0.3736(7) 0.0380 Uiso
C86_3 C 0.5796(8) 0.7261(10) 0.4204(8) 0.0380 Uiso
C87_3 C 0.8194(9) 0.6264(7) 0.3736(7) 0.0380 Uiso
C88_3 C 0.7261(10) 0.5796(8) 0.4204(8) 0.0380 Uiso
C89_3 C 0.6933(9) 0.8838(13) 0.3067(9) 0.0380 Uiso
C90_3 C 0.8838(13) 0.6933(9) 0.3067(9) 0.0380 Uiso
C100_3 C 0.5930(9) 0.8676(11) 0.4070(9) 0.0380 Uiso
C101_3 C 0.8676(11) 0.5930(9) 0.4070(9) 0.0380 Uiso
O49_3 O 0.9229(13) 0.6056(10) 0.3944(10) 0.0380 Uiso
O50_3 O 0.8508(13) 0.5536(9) 0.4464(9) 0.0380 Uiso
H1_2 H 0.25956 0.314835 0.114434 . .
H2_2 H 0.327969 0.327969 0.0789613 . .
H3_2 H 0.314835 0.25956 0.114434 . .
H4_2 H 0.449683 0.394409 0.301439 . .
H5_2 H 0.446293 0.446293 0.243069 . .
H6_2 H 0.394409 0.449683 0.301439 . .
H7_3 H 0.124939 0.594083 0 . .
H8_3 H 0.314835 0.114434 0.25956 . .
H9_3 H 0.327969 0.0789613 0.327969 . .
H10_3 H 0.25956 0.114434 0.314835 . .
H11_3 H 0.394409 0.301439 0.449683 . .
H12_3 H 0.446293 0.243069 0.446293 . .
H13_3 H 0.449683 0.301439 0.394409 . .
H14_2 H 0.114434 0.25956 0.314835 . .
H15_2 H 0.0789613 0.327969 0.327969 . .
H16_2 H 0.114434 0.314835 0.25956 . .
H17_3 H 0.071131 0.5 0 . .
H18_2 H 0.301439 0.449683 0.394409 . .
H19_2 H 0.243069 0.446293 0.446293 . .
H20_2 H 0.301439 0.394409 0.449683 . .
H21_2 H 0.358237 0.358237 0.358237 . .
H22_3 H 0.233842 0.594151 0 . .
H23_3 H 0.233842 0.405849 0 . .
H24_3 H 0.405849 0.233842 0 . .
H25_3 H 0.594151 0.233842 0 . .
H26_3 H 0.594083 0.124939 0 . .
H30_3 H 0.594151 0.766158 0 . .
H31_3 H 0.405917 0.124939 0 . .
H32_3 H 0.766158 0.405849 0 . .
H33_3 H 0.405849 0.766158 0 . .
H34_3 H 0.657985 0.713259 0.0907855 . .
H35_3 H 0.726393 0.726393 0.126258 . .
H36_3 H 0.713259 0.657985 0.0907855 . .
H43_3 H 0.5 0.071131 1.11022e-16 . .
H44_3 H 0.766158 0.594151 0 . .
H48_3 H 0.641763 0.641763 0.358237 . .
H49_3 H 0.534152 0.410573 0.262526 . .
H50_3 H 0.586036 0.413964 0.320896 . .
H51_3 H 0.589427 0.465848 0.262526 . .
H52_3 H 0.713259 0.342015 0.0907855 . .
H53_3 H 0.726393 0.273607 0.126258 . .
H54_3 H 0.657985 0.286741 0.0907855 . .
H55_3 H 0.124939 0.405917 0 . .
H56_3 H 0.589427 0.534152 0.262526 . .
H57_3 H 0.586036 0.586036 0.320896 . .
H58_3 H 0.534152 0.589427 0.262526 . .
H60_3 H 0.405917 0.875061 0 . .
H61_3 H 0.928869 0.5 0 . .
H63_3 H 0.875061 0.594083 0 . .
H64_3 H 0.5 0.928869 0 . .
H65_3 H 0.875061 0.405917 0 . .
H66_3 H 0.594083 0.875061 0 . .
H67_3 H 0.685165 0.885566 0.25956 . .
H68_3 H 0.672031 0.921039 0.327969 . .
H69_3 H 0.74044 0.885566 0.314835 . .
H70_3 H 0.698561 0.550317 0.394409 . .
H71_3 H 0.756931 0.553707 0.446293 . .
H72_3 H 0.698561 0.605591 0.449683 . .
H76_2 H 0.74044 0.314835 0.885566 . .
H77_2 H 0.672031 0.327969 0.921039 . .
H78_2 H 0.685165 0.25956 0.885566 . .
H88_2 H 0.550317 0.394409 0.698561 . .
H89_2 H 0.553707 0.446293 0.756931 . .
H90_2 H 0.605591 0.449683 0.698561 . .
H91_3 H 0.605591 0.698561 0.449683 . .
H92_3 H 0.553707 0.756931 0.446293 . .
H93_3 H 0.550317 0.698561 0.394409 . .
H94_3 H 0.885566 0.74044 0.314835 . .
H95_3 H 0.921039 0.672031 0.327969 . .
H96_3 H 0.885566 0.685165 0.25956 . .
C8_4 C 0.3062(8) 0.500000 1.000000 0.0380 Uiso
C9_4 C 0.2403(16) 0.500000 1.000000 0.0380 Uiso
C10_4 C 0.2099(17) 0.5527(8) 1.000000 0.0380 Uiso
C11_4 C 0.149(2) 0.5527(8) 1.000000 0.0380 Uiso
C12_4 C 0.119(2) 0.500000 1.000000 0.0380 Uiso
C25_4 C 0.500000 0.3062(8) 1.000000 0.0380 Uiso
O31_4 O 0.3333(9) 0.5469(8) 1.000000 0.0380 Uiso
O32_4 O 0.4531(8) 0.6667(9) 1.000000 0.0380 Uiso
O37_4 O 0.6667(9) 0.4531(8) 1.000000 0.0380 Uiso
O38_4 O 0.5469(8) 0.3333(9) 1.000000 0.0380 Uiso
C30_4 C 0.500000 0.2403(16) 1.000000 0.0380 Uiso
C35_4 C 0.500000 0.6938(8) 1.000000 0.0380 Uiso
C36_4 C 0.2099(17) 0.4473(8) 1.000000 0.0380 Uiso
C37_4 C 0.6938(8) 0.500000 1.000000 0.0380 Uiso
C38_4 C 0.4473(8) 0.2099(17) 1.000000 0.0380 Uiso
C39_4 C 0.5527(8) 0.2099(17) 1.000000 0.0380 Uiso
C48_4 C 0.500000 0.7597(16) 1.000000 0.0380 Uiso
C49_4 C 0.149(2) 0.4473(8) 1.000000 0.0380 Uiso
C50_4 C 0.7597(16) 0.500000 1.000000 0.0380 Uiso
C51_4 C 0.4473(8) 0.149(2) 1.000000 0.0380 Uiso
C52_4 C 0.5527(8) 0.149(2) 1.000000 0.0380 Uiso
C61_4 C 0.4473(8) 0.7901(17) 1.000000 0.0380 Uiso
C62_4 C 0.5527(8) 0.7901(17) 1.000000 0.0380 Uiso
C63_4 C 0.7901(17) 0.4473(8) 1.000000 0.0380 Uiso
C64_4 C 0.7901(17) 0.5527(8) 1.000000 0.0380 Uiso
C65_4 C 0.500000 0.119(2) 1.000000 0.0380 Uiso
C69_4 C 0.4473(8) 0.851(2) 1.000000 0.0380 Uiso
C70_4 C 0.5527(8) 0.851(2) 1.000000 0.0380 Uiso
C71_4 C 0.851(2) 0.4473(8) 1.000000 0.0380 Uiso
C72_4 C 0.851(2) 0.5527(8) 1.000000 0.0380 Uiso
C73_4 C 0.500000 0.881(2) 1.000000 0.0380 Uiso
C74_4 C 0.881(2) 0.500000 1.000000 0.0380 Uiso
H7_4 H 0.124939 0.594083 1 . .
H17_4 H 0.071131 0.5 1 . .
H22_4 H 0.233842 0.594151 1 . .
H23_4 H 0.233842 0.405849 1 . .
H24_4 H 0.405849 0.233842 1 . .
H25_4 H 0.594151 0.233842 1 . .
H26_4 H 0.594083 0.124939 1 . .
H30_4 H 0.594151 0.766158 1 . .
H31_4 H 0.405917 0.124939 1 . .
H32_4 H 0.766158 0.405849 1 . .
H33_4 H 0.405849 0.766158 1 . .
H43_4 H 0.5 0.071131 1 . .
H44_4 H 0.766158 0.594151 1 . .
H55_4 H 0.124939 0.405917 1 . .
H60_4 H 0.405917 0.875061 1 . .
H61_4 H 0.928869 0.5 1 . .
H63_4 H 0.875061 0.594083 1 . .
H64_4 H 0.5 0.928869 1 . .
H65_4 H 0.875061 0.405917 1 . .
H66_4 H 0.594083 0.875061 1 . .
O68_5 O -0.000000 0.5469(8) 0.3333(9) 0.0380 Uiso
O71_3 O 0.0460(8) 0.500000 0.4216(7) 0.0380 Uiso
C106_5 C 0.000000 0.500000 0.3062(8) 0.0380 Uiso
O72_5 O 0.000000 0.4531(8) 0.3333(9) 0.0380 Uiso
C108_5 C 0.000000 0.500000 0.2403(16) 0.0380 Uiso
C111_5 C 0.000000 0.4473(8) 0.2099(17) 0.0380 Uiso
C112_5 C 0.000000 0.5527(8) 0.2099(17) 0.0380 Uiso
C115_5 C 0.000000 0.4473(8) 0.149(2) 0.0380 Uiso
C116_5 C -0.000000 0.5527(8) 0.149(2) 0.0380 Uiso
C118_5 C 0.000000 0.500000 0.119(2) 0.0380 Uiso
H97_5 H -3.08149e-33 0.405849 0.233842 . .
H100_5 H -6.16298e-33 0.5 0.071131 . .
H102_5 H 0 0.594151 0.233842 . .
H103_5 H 7.70372e-33 0.405917 0.124939 . .
H104_5 H -3.08149e-33 0.594083 0.124939 . .
O64_3 O 0.9540(8) 0.500000 0.4216(7) 0.0380 Uiso
O68_6 O 1.000000 0.5469(8) 0.3333(9) 0.0380 Uiso
C106_6 C 1.000000 0.500000 0.3062(8) 0.0380 Uiso
O72_6 O 1.000000 0.4531(8) 0.3333(9) 0.0380 Uiso
C108_6 C 1.000000 0.500000 0.2403(16) 0.0380 Uiso
C111_6 C 1.000000 0.4473(8) 0.2099(17) 0.0380 Uiso
C112_6 C 1.000000 0.5527(8) 0.2099(17) 0.0380 Uiso
C115_6 C 1.000000 0.4473(8) 0.149(2) 0.0380 Uiso
C116_6 C 1.000000 0.5527(8) 0.149(2) 0.0380 Uiso
C118_6 C 1.000000 0.500000 0.119(2) 0.0380 Uiso
H1_3 H 0.25956 0.685165 0.885566 . .
H2_3 H 0.327969 0.672031 0.921039 . .
H3_3 H 0.314835 0.74044 0.885566 . .
H4_3 H 0.449683 0.605591 0.698561 . .
H5_3 H 0.446293 0.553707 0.756931 . .
H6_3 H 0.394409 0.550317 0.698561 . .
H8_4 H 0.314835 0.885566 0.74044 . .
H9_4 H 0.327969 0.921039 0.672031 . .
H10_4 H 0.25956 0.885566 0.685165 . .
H11_4 H 0.394409 0.698561 0.550317 . .
H12_4 H 0.446293 0.756931 0.553707 . .
H13_4 H 0.449683 0.698561 0.605591 . .
H27_3 H 0.713259 0.909215 0.342015 . .
H28_3 H 0.726393 0.873742 0.273607 . .
H29_3 H 0.657985 0.909215 0.286741 . .
H37_3 H 0.534152 0.737474 0.410573 . .
H38_3 H 0.586036 0.679104 0.413964 . .
H39_3 H 0.589427 0.737474 0.465848 . .
H40_3 H 0.589427 0.737474 0.534152 . .
H41_3 H 0.586036 0.679104 0.586036 . .
H42_3 H 0.534152 0.737474 0.589427 . .
H45_3 H 0.657985 0.909215 0.713259 . .
H46_3 H 0.726393 0.873742 0.726393 . .
H47_3 H 0.713259 0.909215 0.657985 . .
H67_4 H 0.685165 0.114434 0.74044 . .
H68_4 H 0.672031 0.0789613 0.672031 . .
H69_4 H 0.74044 0.114434 0.685165 . .
H76_3 H 0.74044 0.685165 0.114434 . .
H77_3 H 0.672031 0.672031 0.0789613 . .
H78_3 H 0.685165 0.74044 0.114434 . .
H88_3 H 0.550317 0.605591 0.301439 . .
H89_3 H 0.553707 0.553707 0.243069 . .
H90_3 H 0.605591 0.550317 0.301439 . .
H91_4 H 0.605591 0.301439 0.550317 . .
H92_4 H 0.553707 0.243069 0.553707 . .
H93_4 H 0.550317 0.301439 0.605591 . .
H97_6 H 1 0.405849 0.233842 . .
H100_6 H 1 0.5 0.071131 . .
H102_6 H 1 0.594151 0.233842 . .
H103_6 H 1 0.405917 0.124939 . .
H104_6 H 1 0.594083 0.124939 . .
H1_4 H 0.25956 0.885566 0.314835 . .
H2_4 H 0.327969 0.921039 0.327969 . .
H3_4 H 0.314835 0.885566 0.25956 . .
H4_4 H 0.449683 0.698561 0.394409 . .
H5_4 H 0.446293 0.756931 0.446293 . .
H6_4 H 0.394409 0.698561 0.449683 . .
H76_4 H 0.74044 0.114434 0.314835 . .
H77_4 H 0.672031 0.0789613 0.327969 . .
H78_4 H 0.685165 0.114434 0.25956 . .
H88_4 H 0.550317 0.301439 0.394409 . .
H89_4 H 0.553707 0.243069 0.446293 . .
H90_4 H 0.605591 0.301439 0.449683 . .
H34_4 H 0.0907855 0.657985 0.713259 . .
H35_4 H 0.126258 0.726393 0.726393 . .
H36_4 H 0.0907855 0.713259 0.657985 . .
H40_4 H 0.465848 0.589427 0.262526 . .
H41_4 H 0.413964 0.586036 0.320896 . .
H42_4 H 0.410573 0.534152 0.262526 . .
H45_4 H 0.286741 0.657985 0.0907855 . .
H46_4 H 0.273607 0.726393 0.126258 . .
H47_4 H 0.342015 0.713259 0.0907855 . .
H49_4 H 0.262526 0.534152 0.410573 . .
H50_4 H 0.320896 0.586036 0.413964 . .
H51_4 H 0.262526 0.589427 0.465848 . .
H52_4 H 0.0907855 0.713259 0.342015 . .
H53_4 H 0.126258 0.726393 0.273607 . .
H54_4 H 0.0907855 0.657985 0.286741 . .
H56_4 H 0.262526 0.589427 0.534152 . .
H57_4 H 0.320896 0.586036 0.586036 . .
H58_4 H 0.262526 0.534152 0.589427 . .
H40_5 H 0.465848 0.262526 0.410573 . .
H41_5 H 0.413964 0.320896 0.413964 . .
H42_5 H 0.410573 0.262526 0.465848 . .
H45_5 H 0.286741 0.0907855 0.342015 . .
H46_5 H 0.273607 0.126258 0.273607 . .
H47_5 H 0.342015 0.0907855 0.286741 . .
H49_5 H 0.262526 0.410573 0.465848 . .
H50_5 H 0.320896 0.413964 0.413964 . .
H51_5 H 0.262526 0.465848 0.410573 . .
H52_5 H 0.0907855 0.342015 0.286741 . .
H53_5 H 0.126258 0.273607 0.273607 . .
H54_5 H 0.0907855 0.286741 0.342015 . .
H34_5 H 0.0907855 0.286741 0.657985 . .
H35_5 H 0.126258 0.273607 0.726393 . .
H36_5 H 0.0907855 0.342015 0.713259 . .
H56_5 H 0.262526 0.465848 0.589427 . .
H57_5 H 0.320896 0.413964 0.586036 . .
H58_5 H 0.262526 0.410573 0.534152 . .
H49_6 H 0.410573 0.262526 0.534152 . .
H50_6 H 0.413964 0.320896 0.586036 . .
H51_6 H 0.465848 0.262526 0.589427 . .
H52_6 H 0.342015 0.0907855 0.713259 . .
H53_6 H 0.273607 0.126258 0.726393 . .
H54_6 H 0.286741 0.0907855 0.657985 . .
H49_7 H 0.410573 0.465848 0.262526 . .
H50_7 H 0.413964 0.413964 0.320896 . .
H51_7 H 0.465848 0.410573 0.262526 . .
H52_7 H 0.342015 0.286741 0.0907855 . .
H53_7 H 0.273607 0.273607 0.126258 . .
H54_7 H 0.286741 0.342015 0.0907855 . .
H27_4 H 0.909215 0.713259 0.657985 . .
H28_4 H 0.873742 0.726393 0.726393 . .
H29_4 H 0.909215 0.657985 0.713259 . .
H37_4 H 0.737474 0.534152 0.589427 . .
H38_4 H 0.679104 0.586036 0.586036 . .
H39_4 H 0.737474 0.589427 0.534152 . .
H40_6 H 0.737474 0.589427 0.465848 . .
H41_6 H 0.679104 0.586036 0.413964 . .
H42_6 H 0.737474 0.534152 0.410573 . .
H45_6 H 0.909215 0.657985 0.286741 . .
H46_6 H 0.873742 0.726393 0.273607 . .
H47_6 H 0.909215 0.713259 0.342015 . .
H40_7 H 0.737474 0.465848 0.410573 . .
H41_7 H 0.679104 0.413964 0.413964 . .
H42_7 H 0.737474 0.410573 0.465848 . .
H45_7 H 0.909215 0.286741 0.342015 . .
H46_7 H 0.873742 0.273607 0.273607 . .
H47_7 H 0.909215 0.342015 0.286741 . .
H27_5 H 0.909215 0.342015 0.713259 . .
H28_5 H 0.873742 0.273607 0.726393 . .
H29_5 H 0.909215 0.286741 0.657985 . .
H37_5 H 0.737474 0.410573 0.534152 . .
H38_5 H 0.679104 0.413964 0.586036 . .
H39_5 H 0.737474 0.465848 0.589427 . .
loop_
_geom_bond_atom_site_label_1
_geom_bond_atom_site_label_2
_geom_bond_site_symmetry_1
_geom_bond_site_symmetry_2
O4 Zr1 1_555 1_555
C8 O4 1_555 1_555
C9 C8 1_555 1_555
C10 C9 1_555 1_555
C11 C10 1_555 1_555
C12 C11 1_555 1_555
O10 Zr1 1_555 1_555
O11 Zr1 1_555 1_555
O12 Zr1 1_555 1_555
O13 Zr1 1_555 1_555
C25 O10 1_555 1_555
Zr9 O11 1_555 1_555
O31 C8 1_555 1_555
O32 Zr7 1_555 1_555
O33 Zr7 1_555 1_555
O35 Zr7 1_555 1_555
O37 Zr8 1_555 1_555
O38 Zr8 1_555 1_555
O39 Zr8 1_555 1_555
O40 Zr8 1_555 1_555
C30 C25 1_555 1_555
O42 Zr10 1_555 1_555
O43 Zr10 1_555 1_555
O44 Zr10 1_555 1_555
C35 O32 1_555 1_555
C36 C9 1_555 1_555
C37 O37 1_555 1_555
C38 C30 1_555 1_555
C39 C30 1_555 1_555
C48 C35 1_555 1_555
C49 C12 1_555 1_555
C50 C37 1_555 1_555
C51 C38 1_555 1_555
C52 C39 1_555 1_555
C61 C48 1_555 1_555
C62 C48 1_555 1_555
C63 C50 1_555 1_555
C64 C50 1_555 1_555
C65 C51 1_555 1_555
C69 C61 1_555 1_555
C70 C62 1_555 1_555
C71 C63 1_555 1_555
C72 C64 1_555 1_555
C73 C69 1_555 1_555
C74 C71 1_555 1_555
O11 Zr8 1_555 1_555
O12 Zr7 1_555 1_555
O12 Zr9 1_555 1_555
Zr7 O31 1_555 1_555
C25 O38 1_555 1_555
Zr9 O35 1_555 1_555
Zr9 O40 1_555 1_555
Zr10 O35 1_555 1_555
Zr10 O40 1_555 1_555
O42 C37 1_555 1_555
O43 C35 1_555 1_555
C36 C49 1_555 1_555
C52 C65 1_555 1_555
C70 C73 1_555 1_555
C72 C74 1_555 1_555
C11 H7 1_555 1_555
C12 H17 1_555 1_555
C10 H22 1_555 1_555
C36 H23 1_555 1_555
C38 H24 1_555 1_555
C39 H25 1_555 1_555
C52 H26 1_555 1_555
C62 H30 1_555 1_555
C51 H31 1_555 1_555
C63 H32 1_555 1_555
C61 H33 1_555 1_555
C65 H43 1_555 1_555
C64 H44 1_555 1_555
C49 H55 1_555 1_555
C69 H60 1_555 1_555
C74 H61 1_555 1_555
C72 H63 1_555 1_555
C73 H64 1_555 1_555
C71 H65 1_555 1_555
C70 H66 1_555 1_555
O20 Zr3 1_555 1_555
O21 Zr3 1_555 1_555
O22 Zr3 1_555 1_555
O24 Zr3 1_555 1_555
O25 Zr3 1_555 1_555
Zr12 O22 1_555 1_555
O21 Zr11 1_555 1_555
I1 Cu1 1_555 1_555
Cu1 N1 1_555 1_555
N1 C1 1_555 1_555
C1 C2 1_555 1_555
N2 N1 1_555 1_555
C2 C4 1_555 1_555
C3 C1 1_555 1_555
C4 N2 1_555 1_555
C5 N2 1_555 1_555
C6 C2 1_555 1_555
C7 C4 1_555 1_555
O1 C6 1_555 1_555
O2 C6 1_555 1_555
Zr1_2 O1 1_555 1_555
Zr2 O2 1_555 1_555
O3 Zr1_2 1_555 1_555
O4_2 Zr1_2 1_555 1_555
C8_2 O4_2 1_555 1_555
C9_2 C8_2 1_555 1_555
C10_2 C9_2 1_555 1_555
C11_2 C10_2 1_555 1_555
C12_2 C11_2 1_555 1_555
N3 Cu1 1_555 1_555
N4 Cu1 1_555 1_555
C13 N3 1_555 1_555
N5 C5 1_555 1_555
C14 N4 1_555 1_555
N6 C5 1_555 1_555
C15 C13 1_555 1_555
C16 C13 1_555 1_555
C17 N5 1_555 1_555
C18 C14 1_555 1_555
C19 C14 1_555 1_555
C20 N6 1_555 1_555
C21 C15 1_555 1_555
C22 C17 1_555 1_555
C23 C18 1_555 1_555
C24 C20 1_555 1_555
O5 C21 1_555 1_555
O6 C21 1_555 1_555
O7 C23 1_555 1_555
O8 C23 1_555 1_555
Zr3_2 O5 1_555 1_555
Zr4 O6 1_555 1_555
Zr5_2 O7 1_555 1_555
Zr6 O8 1_555 1_555
O9 Zr1_2 1_555 1_555
O10_2 Zr1_2 1_555 1_555
O14 Zr2 1_555 1_555
O15 Zr2 1_555 1_555
O16 Zr2 1_555 1_555
O17 Zr2 1_555 1_555
O18 Zr2 1_555 1_555
O19 Zr3_2 1_555 1_555
O23 Zr3_2 1_555 1_555
O24_2 Zr3_2 1_555 1_555
O25_2 Zr3_2 1_555 1_555
O26 Zr4 1_555 1_555
O27 Zr4 1_555 1_555
O28 Zr4 1_555 1_555
O29 Zr4 1_555 1_555
O30 Zr4 1_555 1_555
Zr7_2 O3 1_555 1_555
Zr8_2 O9 1_555 1_555
C25_2 O10_2 1_555 1_555
C26 O14 1_555 1_555
C27 O15 1_555 1_555
Zr10_2 O16 1_555 1_555
Zr11_2 O19 1_555 1_555
C28 O26 1_555 1_555
Zr13_2 O27 1_555 1_555
C29 O28 1_555 1_555
O31_2 C8_2 1_555 1_555
O32_2 Zr7_2 1_555 1_555
O34 Zr7_2 1_555 1_555
O36 Zr8_2 1_555 1_555
O37_2 Zr8_2 1_555 1_555
O38_2 Zr8_2 1_555 1_555
C30_2 C25_2 1_555 1_555
O41 C26 1_555 1_555
C31 C26 1_555 1_555
C32 C27 1_555 1_555
O42_2 Zr10_2 1_555 1_555
O43_2 Zr10_2 1_555 1_555
O45 Zr11_2 1_555 1_555
O46 C28 1_555 1_555
C33 C28 1_555 1_555
C34 C29 1_555 1_555
C35_2 O32_2 1_555 1_555
C36_2 C9_2 1_555 1_555
C37_2 O37_2 1_555 1_555
C38_2 C30_2 1_555 1_555
C39_2 C30_2 1_555 1_555
C40 C31 1_555 1_555
C41 C31 1_555 1_555
C42 C32 1_555 1_555
C43 C32 1_555 1_555
C44 C33 1_555 1_555
C45 C33 1_555 1_555
C46 C34 1_555 1_555
C47 C34 1_555 1_555
C48_2 C35_2 1_555 1_555
C49_2 C12_2 1_555 1_555
C50_2 C37_2 1_555 1_555
C51_2 C38_2 1_555 1_555
C52_2 C39_2 1_555 1_555
C53 C40 1_555 1_555
N7 C40 1_555 1_555
N8 C41 1_555 1_555
C54 C41 1_555 1_555
C55 C42 1_555 1_555
N9 C42 1_555 1_555
N10 C43 1_555 1_555
C56 C43 1_555 1_555
C57 C44 1_555 1_555
N11 C44 1_555 1_555
N12 C45 1_555 1_555
C58 C45 1_555 1_555
C59 C46 1_555 1_555
N13 C46 1_555 1_555
N14 C47 1_555 1_555
C60 C47 1_555 1_555
C61_2 C48_2 1_555 1_555
C62_2 C48_2 1_555 1_555
C63_2 C50_2 1_555 1_555
C64_2 C50_2 1_555 1_555
C65_2 C51_2 1_555 1_555
C66 N7 1_555 1_555
Cu2 N8 1_555 1_555
C67 N9 1_555 1_555
Cu3 N10 1_555 1_555
C68 N11 1_555 1_555
Cu4 N12 1_555 1_555
C69_2 C61_2 1_555 1_555
C70_2 C62_2 1_555 1_555
C71_2 C63_2 1_555 1_555
C72_2 C64_2 1_555 1_555
N15 C66 1_555 1_555
N16 C66 1_555 1_555
I2 Cu2 1_555 1_555
N17 Cu2 1_555 1_555
N18 Cu2 1_555 1_555
N19 C67 1_555 1_555
I3 Cu3 1_555 1_555
N20 Cu3 1_555 1_555
N21 C68 1_555 1_555
N22 C68 1_555 1_555
I4 Cu4 1_555 1_555
N23 Cu4 1_555 1_555
N24 Cu4 1_555 1_555
C73_2 C69_2 1_555 1_555
C74_2 C71_2 1_555 1_555
C75 N15 1_555 1_555
C76 N16 1_555 1_555
C77 N17 1_555 1_555
C78 N18 1_555 1_555
C79 N19 1_555 1_555
C80 N20 1_555 1_555
C81 N21 1_555 1_555
C82 N22 1_555 1_555
C83 N23 1_555 1_555
C84 N24 1_555 1_555
C85 C75 1_555 1_555
C86 C75 1_555 1_555
C87 C76 1_555 1_555
C88 C76 1_555 1_555
C89 C77 1_555 1_555
C90 C78 1_555 1_555
C91 C79 1_555 1_555
C92 C79 1_555 1_555
C93 C80 1_555 1_555
C94 C81 1_555 1_555
C95 C81 1_555 1_555
C96 C82 1_555 1_555
C97 C82 1_555 1_555
C98 C83 1_555 1_555
C99 C84 1_555 1_555
C100 C85 1_555 1_555
C101 C87 1_555 1_555
C102 C91 1_555 1_555
C103 C94 1_555 1_555
C104 C96 1_555 1_555
O47 C100 1_555 1_555
O48 C100 1_555 1_555
O49 C101 1_555 1_555
O50 C101 1_555 1_555
O51 C102 1_555 1_555
O52 C102 1_555 1_555
O39 C103 1_555 1_555
O54 C103 1_555 1_555
O55 C104 1_555 1_555
O56 C104 1_555 1_555
Zr11 O47 1_555 1_555
Zr15 O48 1_555 1_555
Zr16 O49 1_555 1_555
Zr17 O50 1_555 1_555
Zr5 O51 1_555 1_555
Zr9 O54 1_555 1_555
Zr21 O55 1_555 1_555
O57 Zr11 1_555 1_555
O59 Zr15 1_555 1_555
O60 Zr15 1_555 1_555
O61 Zr15 1_555 1_555
O62 Zr15 1_555 1_555
O22 Zr15 1_555 1_555
O64 Zr17 1_555 1_555
O65 Zr17 1_555 1_555
O66 Zr5 1_555 1_555
O68 Zr21 1_555 1_555
O69 Zr21 1_555 1_555
Zr13 O57 1_555 1_555
Zr23 O64 1_555 1_555
C105 O66 1_555 1_555
C106 O68 1_555 1_555
O72 Zr23 1_555 1_555
C107 C105 1_555 1_555
C108 C106 1_555 1_555
C109 C107 1_555 1_555
C110 C107 1_555 1_555
C111 C108 1_555 1_555
C112 C108 1_555 1_555
C113 C109 1_555 1_555
C114 C110 1_555 1_555
C115 C111 1_555 1_555
C116 C112 1_555 1_555
C117 C113 1_555 1_555
C118 C115 1_555 1_555
Zr2 O3 1_555 1_555
Zr2 O9 1_555 1_555
N3 N5 1_555 1_555
N4 N6 1_555 1_555
C15 C17 1_555 1_555
C18 C20 1_555 1_555
Zr4 O19 1_555 1_555
Zr4 O23 1_555 1_555
O16 Zr8_2 1_555 1_555
O17 Zr7_2 1_555 1_555
O17 Zr10_2 1_555 1_555
O23 Zr12_2 1_555 1_555
O27 Zr11_2 1_555 1_555
O29 Zr12_2 1_555 1_555
O29 Zr13_2 1_555 1_555
Zr7_2 O31_2 1_555 1_555
C25_2 O38_2 1_555 1_555
C27 O36 1_555 1_555
Zr10_2 O41 1_555 1_555
Zr13_2 O46 1_555 1_555
C29 O45 1_555 1_555
O42_2 C37_2 1_555 1_555
O43_2 C35_2 1_555 1_555
C36_2 C49_2 1_555 1_555
C52_2 C65_2 1_555 1_555
N7 N8 1_555 1_555
N9 N10 1_555 1_555
N11 N12 1_555 1_555
N13 N14 1_555 1_555
N13 C67 1_555 1_555
N14 Cu3 1_555 1_555
C70_2 C73_2 1_555 1_555
C72_2 C74_2 1_555 1_555
N15 N17 1_555 1_555
N16 N18 1_555 1_555
N19 N20 1_555 1_555
N21 N23 1_555 1_555
N22 N24 1_555 1_555
C77 C85 1_555 1_555
C78 C87 1_555 1_555
C80 C91 1_555 1_555
C83 C94 1_555 1_555
C84 C96 1_555 1_555
O52 Zr17 1_555 1_555
O56 Zr17 1_555 1_555
Zr15 O57 1_555 1_555
Zr15 O21 1_555 1_555
Zr5 O65 1_555 1_555
Zr21 O64 1_555 1_555
Zr21 O65 1_555 1_555
O62 Zr13 1_555 1_555
O69 C105 1_555 1_555
C106 O72 1_555 1_555
C114 C117 1_555 1_555
C116 C118 1_555 1_555
C3 H1 1_555 1_555
C3 H2 1_555 1_555
C3 H3 1_555 1_555
C7 H4 1_555 1_555
C7 H5 1_555 1_555
C7 H6 1_555 1_555
C11_2 H7_2 1_555 1_555
C16 H8 1_555 1_555
C16 H9 1_555 1_555
C16 H10 1_555 1_555
C22 H11 1_555 1_555
C22 H12 1_555 1_555
C22 H13 1_555 1_555
C19 H14 1_555 1_555
C19 H15 1_555 1_555
C19 H16 1_555 1_555
C12_2 H17_2 1_555 1_555
C24 H18 1_555 1_555
C24 H19 1_555 1_555
C24 H20 1_555 1_555
C5 H21 1_555 1_555
C10_2 H22_2 1_555 1_555
C36_2 H23_2 1_555 1_555
C38_2 H24_2 1_555 1_555
C39_2 H25_2 1_555 1_555
C52_2 H26_2 1_555 1_555
C58 H27 1_555 1_555
C58 H28 1_555 1_555
C58 H29 1_555 1_555
C62_2 H30_2 1_555 1_555
C51_2 H31_2 1_555 1_555
C63_2 H32_2 1_555 1_555
C61_2 H33_2 1_555 1_555
C54 H34 1_555 1_555
C54 H35 1_555 1_555
C54 H36 1_555 1_555
C57 H37 1_555 1_555
C57 H38 1_555 1_555
C57 H39 1_555 1_555
C59 H40 1_555 1_555
C59 H41 1_555 1_555
C59 H42 1_555 1_555
C65_2 H43_2 1_555 1_555
C64_2 H44_2 1_555 1_555
C60 H45 1_555 1_555
C60 H46 1_555 1_555
C60 H47 1_555 1_555
C66 H48 1_555 1_555
C55 H49 1_555 1_555
C55 H50 1_555 1_555
C55 H51 1_555 1_555
C56 H52 1_555 1_555
C56 H53 1_555 1_555
C56 H54 1_555 1_555
C49_2 H55_2 1_555 1_555
C53 H56 1_555 1_555
C53 H57 1_555 1_555
C53 H58 1_555 1_555
C67 H59 1_555 1_555
C69_2 H60_2 1_555 1_555
C74_2 H61_2 1_555 1_555
C68 H62 1_555 1_555
C72_2 H63_2 1_555 1_555
C73_2 H64_2 1_555 1_555
C71_2 H65_2 1_555 1_555
C70_2 H66_2 1_555 1_555
C89 H67 1_555 1_555
C89 H68 1_555 1_555
C89 H69 1_555 1_555
C88 H70 1_555 1_555
C88 H71 1_555 1_555
C88 H72 1_555 1_555
C99 H73 1_555 1_555
C99 H74 1_555 1_555
C99 H75 1_555 1_555
C98 H76 1_555 1_555
C98 H77 1_555 1_555
C98 H78 1_555 1_555
C93 H79 1_555 1_555
C93 H80 1_555 1_555
C93 H81 1_555 1_555
C97 H82 1_555 1_555
C97 H83 1_555 1_555
C97 H84 1_555 1_555
C92 H85 1_555 1_555
C92 H86 1_555 1_555
C92 H87 1_555 1_555
C95 H88 1_555 1_555
C95 H89 1_555 1_555
C95 H90 1_555 1_555
C86 H91 1_555 1_555
C86 H92 1_555 1_555
C86 H93 1_555 1_555
C90 H94 1_555 1_555
C90 H95 1_555 1_555
C90 H96 1_555 1_555
C111 H97 1_555 1_555
C117 H98 1_555 1_555
C114 H99 1_555 1_555
C118 H100 1_555 1_555
C113 H101 1_555 1_555
C112 H102 1_555 1_555
C115 H103 1_555 1_555
C116 H104 1_555 1_555
C109 H105 1_555 1_555
C110 H106 1_555 1_555
O66_2 Zr5_2 1_555 1_555
O67 Zr5_2 1_555 1_555
O68_2 Zr21_2 1_555 1_555
O69_2 Zr21_2 1_555 1_555
O70 Zr21_2 1_555 1_555
O71 Zr21_2 1_555 1_555
C105_2 O66_2 1_555 1_555
C106_2 O68_2 1_555 1_555
O72_2 Zr23_2 1_555 1_555
C107_2 C105_2 1_555 1_555
C108_2 C106_2 1_555 1_555
C109_2 C107_2 1_555 1_555
C110_2 C107_2 1_555 1_555
C111_2 C108_2 1_555 1_555
C112_2 C108_2 1_555 1_555
C113_2 C109_2 1_555 1_555
C114_2 C110_2 1_555 1_555
C115_2 C111_2 1_555 1_555
C116_2 C112_2 1_555 1_555
C117_2 C113_2 1_555 1_555
C118_2 C115_2 1_555 1_555
Zr21_2 O67 1_555 1_555
O69_2 C105_2 1_555 1_555
O71 Zr23_2 1_555 1_555
C106_2 O72_2 1_555 1_555
C114_2 C117_2 1_555 1_555
C116_2 C118_2 1_555 1_555
C111_2 H97_2 1_555 1_555
C117_2 H98_2 1_555 1_555
C114_2 H99_2 1_555 1_555
C118_2 H100_2 1_555 1_555
C113_2 H101_2 1_555 1_555
C112_2 H102_2 1_555 1_555
C115_2 H103_2 1_555 1_555
C116_2 H104_2 1_555 1_555
C109_2 H105_2 1_555 1_555
C110_2 H106_2 1_555 1_555
O68_3 Zr5 1_555 1_555
O71_2 Zr5 1_555 1_555
C106_3 O68_3 1_555 1_555
O72_3 Zr16 1_555 1_555
C108_3 C106_3 1_555 1_555
C111_3 C108_3 1_555 1_555
C112_3 C108_3 1_555 1_555
C115_3 C111_3 1_555 1_555
C116_3 C112_3 1_555 1_555
C118_3 C115_3 1_555 1_555
O71_2 Zr16 1_555 1_555
C106_3 O72_3 1_555 1_555
C116_3 C118_3 1_555 1_555
C111_3 H97_3 1_555 1_555
C118_3 H100_3 1_555 1_555
C112_3 H102_3 1_555 1_555
C115_3 H103_3 1_555 1_555
C116_3 H104_3 1_555 1_555
O20_2 Zr13 1_555 1_555
O24_3 Zr13 1_555 1_555
O25_3 Zr13 1_555 1_555
O62 Zr12 1_555 1_555
O14_2 Zr9 1_555 1_555
O15_2 Zr9 1_555 1_555
O18_2 Zr9 1_555 1_555
O24_4 Zr13_2 1_555 1_555
O25_4 Zr13_2 1_555 1_555
C26_2 O14_2 1_555 1_555
C27_2 O15_2 1_555 1_555
C29_2 O30 1_555 1_555
O33 C26_2 1_555 1_555
C31_2 C26_2 1_555 1_555
C32_2 C27_2 1_555 1_555
O45_2 Zr12_2 1_555 1_555
C34_2 C29_2 1_555 1_555
C40_2 C31_2 1_555 1_555
C41_2 C31_2 1_555 1_555
C42_2 C32_2 1_555 1_555
C43_2 C32_2 1_555 1_555
C46_2 C34_2 1_555 1_555
C47_2 C34_2 1_555 1_555
C53_2 C40_2 1_555 1_555
N7_2 C40_2 1_555 1_555
N8_2 C41_2 1_555 1_555
C54_2 C41_2 1_555 1_555
C55_2 C42_2 1_555 1_555
N9_2 C42_2 1_555 1_555
N10_2 C43_2 1_555 1_555
C56_2 C43_2 1_555 1_555
C59_2 C46_2 1_555 1_555
N13_2 C46_2 1_555 1_555
N14_2 C47_2 1_555 1_555
C60_2 C47_2 1_555 1_555
C66_2 N7_2 1_555 1_555
Cu2_2 N8_2 1_555 1_555
C67_2 N9_2 1_555 1_555
Cu3_2 N10_2 1_555 1_555
N15_2 C66_2 1_555 1_555
N16_2 C66_2 1_555 1_555
I2_2 Cu2_2 1_555 1_555
N17_2 Cu2_2 1_555 1_555
N18_2 Cu2_2 1_555 1_555
N19_2 C67_2 1_555 1_555
I3_2 Cu3_2 1_555 1_555
N20_2 Cu3_2 1_555 1_555
C75_2 N15_2 1_555 1_555
C76_2 N16_2 1_555 1_555
C77_2 N17_2 1_555 1_555
C78_2 N18_2 1_555 1_555
C79_2 N19_2 1_555 1_555
C80_2 N20_2 1_555 1_555
C85_2 C75_2 1_555 1_555
C86_2 C75_2 1_555 1_555
C87_2 C76_2 1_555 1_555
C88_2 C76_2 1_555 1_555
C89_2 C77_2 1_555 1_555
C90_2 C78_2 1_555 1_555
C91_2 C79_2 1_555 1_555
C92_2 C79_2 1_555 1_555
C93_2 C80_2 1_555 1_555
C100_2 C85_2 1_555 1_555
C101_2 C87_2 1_555 1_555
C102_2 C91_2 1_555 1_555
O47_2 C100_2 1_555 1_555
O60 C100_2 1_555 1_555
O49_2 C101_2 1_555 1_555
O50_2 C101_2 1_555 1_555
O70 C102_2 1_555 1_555
O52_2 C102_2 1_555 1_555
Zr12 O47_2 1_555 1_555
Zr23_2 O49_2 1_555 1_555
Zr6 O50_2 1_555 1_555
O64_2 Zr6 1_555 1_555
O67 Zr6 1_555 1_555
O68_4 Zr5_2 1_555 1_555
Zr16_2 O64_2 1_555 1_555
C106_4 O68_4 1_555 1_555
O72_4 Zr16_2 1_555 1_555
C108_4 C106_4 1_555 1_555
C111_4 C108_4 1_555 1_555
C112_4 C108_4 1_555 1_555
C115_4 C111_4 1_555 1_555
C116_4 C112_4 1_555 1_555
C118_4 C115_4 1_555 1_555
C27_2 O13 1_555 1_555
C29_2 O45_2 1_555 1_555
N7_2 N8_2 1_555 1_555
N9_2 N10_2 1_555 1_555
N13_2 N14_2 1_555 1_555
N13_2 C67_2 1_555 1_555
N14_2 Cu3_2 1_555 1_555
N15_2 N17_2 1_555 1_555
N16_2 N18_2 1_555 1_555
N19_2 N20_2 1_555 1_555
C77_2 C85_2 1_555 1_555
C78_2 C87_2 1_555 1_555
C80_2 C91_2 1_555 1_555
O52_2 Zr6 1_555 1_555
Zr5_2 O64_2 1_555 1_555
C106_4 O72_4 1_555 1_555
C116_4 C118_4 1_555 1_555
C58 H8_2 1_555 1_555
C58 H9_2 1_555 1_555
C58 H10_2 1_555 1_555
C57 H11_2 1_555 1_555
C57 H12_2 1_555 1_555
C57 H13_2 1_555 1_555
C16 H27_2 1_555 1_555
C16 H28_2 1_555 1_555
C16 H29_2 1_555 1_555
C54_2 H34_2 1_555 1_555
C54_2 H35_2 1_555 1_555
C54_2 H36_2 1_555 1_555
C22 H37_2 1_555 1_555
C22 H38_2 1_555 1_555
C22 H39_2 1_555 1_555
C59_2 H40_2 1_555 1_555
C59_2 H41_2 1_555 1_555
C59_2 H42_2 1_555 1_555
C60_2 H45_2 1_555 1_555
C60_2 H46_2 1_555 1_555
C60_2 H47_2 1_555 1_555
C66_2 H48_2 1_555 1_555
C55_2 H49_2 1_555 1_555
C55_2 H50_2 1_555 1_555
C55_2 H51_2 1_555 1_555
C56_2 H52_2 1_555 1_555
C56_2 H53_2 1_555 1_555
C56_2 H54_2 1_555 1_555
C53_2 H56_2 1_555 1_555
C53_2 H57_2 1_555 1_555
C53_2 H58_2 1_555 1_555
C67_2 H59_2 1_555 1_555
C89_2 H67_2 1_555 1_555
C89_2 H68_2 1_555 1_555
C89_2 H69_2 1_555 1_555
C88_2 H70_2 1_555 1_555
C88_2 H71_2 1_555 1_555
C88_2 H72_2 1_555 1_555
C93_2 H79_2 1_555 1_555
C93_2 H80_2 1_555 1_555
C93_2 H81_2 1_555 1_555
C92_2 H85_2 1_555 1_555
C92_2 H86_2 1_555 1_555
C92_2 H87_2 1_555 1_555
C86_2 H91_2 1_555 1_555
C86_2 H92_2 1_555 1_555
C86_2 H93_2 1_555 1_555
C90_2 H94_2 1_555 1_555
C90_2 H95_2 1_555 1_555
C90_2 H96_2 1_555 1_555
C111_4 H97_4 1_555 1_555
C118_4 H100_4 1_555 1_555
C112_4 H102_4 1_555 1_555
C115_4 H103_4 1_555 1_555
C116_4 H104_4 1_555 1_555
I1_2 Cu1_2 1_555 1_555
Cu1_2 N1_2 1_555 1_555
N1_2 C1_2 1_555 1_555
C1_2 C2_2 1_555 1_555
N2_2 N1_2 1_555 1_555
C2_2 C4_2 1_555 1_555
C3_2 C1_2 1_555 1_555
C4_2 N2_2 1_555 1_555
C5_2 N2_2 1_555 1_555
C6_2 C2_2 1_555 1_555
C7_2 C4_2 1_555 1_555
O20_2 C6_2 1_555 1_555
O59 C6_2 1_555 1_555
C8_3 O25_3 1_555 1_555
C9_3 C8_3 1_555 1_555
C10_3 C9_3 1_555 1_555
C11_3 C10_3 1_555 1_555
C12_3 C11_3 1_555 1_555
N3_2 Cu1_2 1_555 1_555
N4_2 Cu1_2 1_555 1_555
C13_2 N3_2 1_555 1_555
N5_2 C5_2 1_555 1_555
C14_2 N4_2 1_555 1_555
N6_2 C5_2 1_555 1_555
C15_2 C13_2 1_555 1_555
C16_2 C13_2 1_555 1_555
C17_2 N5_2 1_555 1_555
C18_2 C14_2 1_555 1_555
C19_2 C14_2 1_555 1_555
C20_2 N6_2 1_555 1_555
C21_2 C15_2 1_555 1_555
C22_2 C17_2 1_555 1_555
C23_2 C18_2 1_555 1_555
C24_2 C20_2 1_555 1_555
O44 C21_2 1_555 1_555
O18_2 C21_2 1_555 1_555
O7_2 C23_2 1_555 1_555
O8_2 C23_2 1_555 1_555
Zr23 O7_2 1_555 1_555
Zr17 O8_2 1_555 1_555
C25_3 O24_3 1_555 1_555
C26_3 O61 1_555 1_555
O31_3 C8_3 1_555 1_555
O32_3 Zr11 1_555 1_555
O37_3 Zr12 1_555 1_555
O38_3 Zr12 1_555 1_555
C30_3 C25_3 1_555 1_555
O20 C26_3 1_555 1_555
C31_3 C26_3 1_555 1_555
C35_3 O32_3 1_555 1_555
C36_3 C9_3 1_555 1_555
C37_3 O37_3 1_555 1_555
C38_3 C30_3 1_555 1_555
C39_3 C30_3 1_555 1_555
C40_3 C31_3 1_555 1_555
C41_3 C31_3 1_555 1_555
C48_3 C35_3 1_555 1_555
C49_3 C12_3 1_555 1_555
C50_3 C37_3 1_555 1_555
C51_3 C38_3 1_555 1_555
C52_3 C39_3 1_555 1_555
C53_3 C40_3 1_555 1_555
N7_3 C40_3 1_555 1_555
N8_3 C41_3 1_555 1_555
C54_3 C41_3 1_555 1_555
C61_3 C48_3 1_555 1_555
C62_3 C48_3 1_555 1_555
C63_3 C50_3 1_555 1_555
C64_3 C50_3 1_555 1_555
C65_3 C51_3 1_555 1_555
C66_3 N7_3 1_555 1_555
Cu2_3 N8_3 1_555 1_555
C69_3 C61_3 1_555 1_555
C70_3 C62_3 1_555 1_555
C71_3 C63_3 1_555 1_555
C72_3 C64_3 1_555 1_555
N15_3 C66_3 1_555 1_555
N16_3 C66_3 1_555 1_555
I2_3 Cu2_3 1_555 1_555
N17_3 Cu2_3 1_555 1_555
N18_3 Cu2_3 1_555 1_555
C73_3 C69_3 1_555 1_555
C74_3 C71_3 1_555 1_555
C75_3 N15_3 1_555 1_555
C76_3 N16_3 1_555 1_555
C77_3 N17_3 1_555 1_555
C78_3 N18_3 1_555 1_555
C85_3 C75_3 1_555 1_555
C86_3 C75_3 1_555 1_555
C87_3 C76_3 1_555 1_555
C88_3 C76_3 1_555 1_555
C89_3 C77_3 1_555 1_555
C90_3 C78_3 1_555 1_555
C100_3 C85_3 1_555 1_555
C101_3 C87_3 1_555 1_555
O34 C100_3 1_555 1_555
O18 C100_3 1_555 1_555
O49_3 C101_3 1_555 1_555
O50_3 C101_3 1_555 1_555
Zr16_2 O49_3 1_555 1_555
Zr6 O50_3 1_555 1_555
O71 Zr6 1_555 1_555
N3_2 N5_2 1_555 1_555
N4_2 N6_2 1_555 1_555
C15_2 C17_2 1_555 1_555
C18_2 C20_2 1_555 1_555
Zr11 O31_3 1_555 1_555
C25_3 O38_3 1_555 1_555
O25 C37_3 1_555 1_555
O24 C35_3 1_555 1_555
C36_3 C49_3 1_555 1_555
C52_3 C65_3 1_555 1_555
N7_3 N8_3 1_555 1_555
C70_3 C73_3 1_555 1_555
C72_3 C74_3 1_555 1_555
N15_3 N17_3 1_555 1_555
N16_3 N18_3 1_555 1_555
C77_3 C85_3 1_555 1_555
C78_3 C87_3 1_555 1_555
C3_2 H1_2 1_555 1_555
C3_2 H2_2 1_555 1_555
C3_2 H3_2 1_555 1_555
C7_2 H4_2 1_555 1_555
C7_2 H5_2 1_555 1_555
C7_2 H6_2 1_555 1_555
C11_3 H7_3 1_555 1_555
C16_2 H8_3 1_555 1_555
C16_2 H9_3 1_555 1_555
C16_2 H10_3 1_555 1_555
C22_2 H11_3 1_555 1_555
C22_2 H12_3 1_555 1_555
C22_2 H13_3 1_555 1_555
C19_2 H14_2 1_555 1_555
C19_2 H15_2 1_555 1_555
C19_2 H16_2 1_555 1_555
C12_3 H17_3 1_555 1_555
C24_2 H18_2 1_555 1_555
C24_2 H19_2 1_555 1_555
C24_2 H20_2 1_555 1_555
C5_2 H21_2 1_555 1_555
C10_3 H22_3 1_555 1_555
C36_3 H23_3 1_555 1_555
C38_3 H24_3 1_555 1_555
C39_3 H25_3 1_555 1_555
C52_3 H26_3 1_555 1_555
C62_3 H30_3 1_555 1_555
C51_3 H31_3 1_555 1_555
C63_3 H32_3 1_555 1_555
C61_3 H33_3 1_555 1_555
C54_3 H34_3 1_555 1_555
C54_3 H35_3 1_555 1_555
C54_3 H36_3 1_555 1_555
C65_3 H43_3 1_555 1_555
C64_3 H44_3 1_555 1_555
C66_3 H48_3 1_555 1_555
C86_2 H49_3 1_555 1_555
C86_2 H50_3 1_555 1_555
C86_2 H51_3 1_555 1_555
C89_2 H52_3 1_555 1_555
C89_2 H53_3 1_555 1_555
C89_2 H54_3 1_555 1_555
C49_3 H55_3 1_555 1_555
C53_3 H56_3 1_555 1_555
C53_3 H57_3 1_555 1_555
C53_3 H58_3 1_555 1_555
C69_3 H60_3 1_555 1_555
C74_3 H61_3 1_555 1_555
C72_3 H63_3 1_555 1_555
C73_3 H64_3 1_555 1_555
C71_3 H65_3 1_555 1_555
C70_3 H66_3 1_555 1_555
C89_3 H67_3 1_555 1_555
C89_3 H68_3 1_555 1_555
C89_3 H69_3 1_555 1_555
C88_3 H70_3 1_555 1_555
C88_3 H71_3 1_555 1_555
C88_3 H72_3 1_555 1_555
C60_2 H76_2 1_555 1_555
C60_2 H77_2 1_555 1_555
C60_2 H78_2 1_555 1_555
C59_2 H88_2 1_555 1_555
C59_2 H89_2 1_555 1_555
C59_2 H90_2 1_555 1_555
C86_3 H91_3 1_555 1_555
C86_3 H92_3 1_555 1_555
C86_3 H93_3 1_555 1_555
C90_3 H94_3 1_555 1_555
C90_3 H95_3 1_555 1_555
C90_3 H96_3 1_555 1_555
C8_4 O25_4 1_555 1_555
C9_4 C8_4 1_555 1_555
C10_4 C9_4 1_555 1_555
C11_4 C10_4 1_555 1_555
C12_4 C11_4 1_555 1_555
C25_4 O24_4 1_555 1_555
O31_4 C8_4 1_555 1_555
O32_4 Zr11_2 1_555 1_555
O37_4 Zr12_2 1_555 1_555
O38_4 Zr12_2 1_555 1_555
C30_4 C25_4 1_555 1_555
C35_4 O32_4 1_555 1_555
C36_4 C9_4 1_555 1_555
C37_4 O37_4 1_555 1_555
C38_4 C30_4 1_555 1_555
C39_4 C30_4 1_555 1_555
C48_4 C35_4 1_555 1_555
C49_4 C12_4 1_555 1_555
C50_4 C37_4 1_555 1_555
C51_4 C38_4 1_555 1_555
C52_4 C39_4 1_555 1_555
C61_4 C48_4 1_555 1_555
C62_4 C48_4 1_555 1_555
C63_4 C50_4 1_555 1_555
C64_4 C50_4 1_555 1_555
C65_4 C51_4 1_555 1_555
C69_4 C61_4 1_555 1_555
C70_4 C62_4 1_555 1_555
C71_4 C63_4 1_555 1_555
C72_4 C64_4 1_555 1_555
C73_4 C69_4 1_555 1_555
C74_4 C71_4 1_555 1_555
Zr11_2 O31_4 1_555 1_555
C25_4 O38_4 1_555 1_555
O25_2 C37_4 1_555 1_555
O24_2 C35_4 1_555 1_555
C36_4 C49_4 1_555 1_555
C52_4 C65_4 1_555 1_555
C70_4 C73_4 1_555 1_555
C72_4 C74_4 1_555 1_555
C11_4 H7_4 1_555 1_555
C12_4 H17_4 1_555 1_555
C10_4 H22_4 1_555 1_555
C36_4 H23_4 1_555 1_555
C38_4 H24_4 1_555 1_555
C39_4 H25_4 1_555 1_555
C52_4 H26_4 1_555 1_555
C62_4 H30_4 1_555 1_555
C51_4 H31_4 1_555 1_555
C63_4 H32_4 1_555 1_555
C61_4 H33_4 1_555 1_555
C65_4 H43_4 1_555 1_555
C64_4 H44_4 1_555 1_555
C49_4 H55_4 1_555 1_555
C69_4 H60_4 1_555 1_555
C74_4 H61_4 1_555 1_555
C72_4 H63_4 1_555 1_555
C73_4 H64_4 1_555 1_555
C71_4 H65_4 1_555 1_555
C70_4 H66_4 1_555 1_555
O68_5 Zr16 1_555 1_555
O71_3 Zr16 1_555 1_555
C106_5 O68_5 1_555 1_555
O72_5 Zr23 1_555 1_555
C108_5 C106_5 1_555 1_555
C111_5 C108_5 1_555 1_555
C112_5 C108_5 1_555 1_555
C115_5 C111_5 1_555 1_555
C116_5 C112_5 1_555 1_555
C118_5 C115_5 1_555 1_555
O71_3 Zr23 1_555 1_555
C106_5 O72_5 1_555 1_555
C116_5 C118_5 1_555 1_555
C111_5 H97_5 1_555 1_555
C118_5 H100_5 1_555 1_555
C112_5 H102_5 1_555 1_555
C115_5 H103_5 1_555 1_555
C116_5 H104_5 1_555 1_555
O64_3 Zr6 1_555 1_555
O68_6 Zr16_2 1_555 1_555
Zr23_2 O64_3 1_555 1_555
C106_6 O68_6 1_555 1_555
O72_6 Zr23_2 1_555 1_555
C108_6 C106_6 1_555 1_555
C111_6 C108_6 1_555 1_555
C112_6 C108_6 1_555 1_555
C115_6 C111_6 1_555 1_555
C116_6 C112_6 1_555 1_555
C118_6 C115_6 1_555 1_555
Zr16_2 O64_3 1_555 1_555
C106_6 O72_6 1_555 1_555
C116_6 C118_6 1_555 1_555
C60 H1_3 1_555 1_555
C60 H2_3 1_555 1_555
C60 H3_3 1_555 1_555
C59 H4_3 1_555 1_555
C59 H5_3 1_555 1_555
C59 H6_3 1_555 1_555
C56 H8_4 1_555 1_555
C56 H9_4 1_555 1_555
C56 H10_4 1_555 1_555
C55 H11_4 1_555 1_555
C55 H12_4 1_555 1_555
C55 H13_4 1_555 1_555
C89_3 H27_3 1_555 1_555
C89_3 H28_3 1_555 1_555
C89_3 H29_3 1_555 1_555
C86_3 H37_3 1_555 1_555
C86_3 H38_3 1_555 1_555
C86_3 H39_3 1_555 1_555
C7 H40_3 1_555 1_555
C7 H41_3 1_555 1_555
C7 H42_3 1_555 1_555
C3 H45_3 1_555 1_555
C3 H46_3 1_555 1_555
C3 H47_3 1_555 1_555
C56_2 H67_4 1_555 1_555
C56_2 H68_4 1_555 1_555
C56_2 H69_4 1_555 1_555
C54_3 H76_3 1_555 1_555
C54_3 H77_3 1_555 1_555
C54_3 H78_3 1_555 1_555
C53_3 H88_3 1_555 1_555
C53_3 H89_3 1_555 1_555
C53_3 H90_3 1_555 1_555
C55_2 H91_4 1_555 1_555
C55_2 H92_4 1_555 1_555
C55_2 H93_4 1_555 1_555
C111_6 H97_6 1_555 1_555
C118_6 H100_6 1_555 1_555
C112_6 H102_6 1_555 1_555
C115_6 H103_6 1_555 1_555
C116_6 H104_6 1_555 1_555
C54 H1_4 1_555 1_555
C54 H2_4 1_555 1_555
C54 H3_4 1_555 1_555
C53 H4_4 1_555 1_555
C53 H5_4 1_555 1_555
C53 H6_4 1_555 1_555
C54_2 H76_4 1_555 1_555
C54_2 H77_4 1_555 1_555
C54_2 H78_4 1_555 1_555
C53_2 H88_4 1_555 1_555
C53_2 H89_4 1_555 1_555
C53_2 H90_4 1_555 1_555
O71_2 Zr17 1_555 1_555
Zr17 O71_3 1_555 1_555
C93 H34_4 1_555 1_555
C93 H35_4 1_555 1_555
C93 H36_4 1_555 1_555
C86 H40_4 1_555 1_555
C86 H41_4 1_555 1_555
C86 H42_4 1_555 1_555
C89 H45_4 1_555 1_555
C89 H46_4 1_555 1_555
C89 H47_4 1_555 1_555
C88 H49_4 1_555 1_555
C88 H50_4 1_555 1_555
C88 H51_4 1_555 1_555
C90 H52_4 1_555 1_555
C90 H53_4 1_555 1_555
C90 H54_4 1_555 1_555
C92 H56_4 1_555 1_555
C92 H57_4 1_555 1_555
C92 H58_4 1_555 1_555
C22_2 H40_5 1_555 1_555
C22_2 H41_5 1_555 1_555
C22_2 H42_5 1_555 1_555
C16_2 H45_5 1_555 1_555
C16_2 H46_5 1_555 1_555
C16_2 H47_5 1_555 1_555
C24_2 H49_5 1_555 1_555
C24_2 H50_5 1_555 1_555
C24_2 H51_5 1_555 1_555
C19_2 H52_5 1_555 1_555
C19_2 H53_5 1_555 1_555
C19_2 H54_5 1_555 1_555
C99 H34_5 1_555 1_555
C99 H35_5 1_555 1_555
C99 H36_5 1_555 1_555
C97 H56_5 1_555 1_555
C97 H57_5 1_555 1_555
C97 H58_5 1_555 1_555
C95 H49_6 1_555 1_555
C95 H50_6 1_555 1_555
C95 H51_6 1_555 1_555
C98 H52_6 1_555 1_555
C98 H53_6 1_555 1_555
C98 H54_6 1_555 1_555
C7_2 H49_7 1_555 1_555
C7_2 H50_7 1_555 1_555
C7_2 H51_7 1_555 1_555
C3_2 H52_7 1_555 1_555
C3_2 H53_7 1_555 1_555
C3_2 H54_7 1_555 1_555
C19 H27_4 1_555 1_555
C19 H28_4 1_555 1_555
C19 H29_4 1_555 1_555
C24 H37_4 1_555 1_555
C24 H38_4 1_555 1_555
C24 H39_4 1_555 1_555
C88_3 H40_6 1_555 1_555
C88_3 H41_6 1_555 1_555
C88_3 H42_6 1_555 1_555
C90_3 H45_6 1_555 1_555
C90_3 H46_6 1_555 1_555
C90_3 H47_6 1_555 1_555
C88_2 H40_7 1_555 1_555
C88_2 H41_7 1_555 1_555
C88_2 H42_7 1_555 1_555
C90_2 H45_7 1_555 1_555
C90_2 H46_7 1_555 1_555
C90_2 H47_7 1_555 1_555
C93_2 H27_5 1_555 1_555
C93_2 H28_5 1_555 1_555
C93_2 H29_5 1_555 1_555
C92_2 H37_5 1_555 1_555
C92_2 H38_5 1_555 1_555
C92_2 H39_5 1_555 1_555

#END
