
###############################################################################
#
# This file contains modified crystal structure data generated from the
# MOF subset of the Cambridge Structural Database (CSD) v542 
# hosted by the Cambridge Crystallographic Data Centre (CCDC).
#
# This work is licensed under the Creative Commons
# Attribution-NonCommercial-ShareAlike 4.0 International License.
# To view a copy of this license, visit
# http://creativecommons.org/licenses/by-nc-sa/4.0/
# or send a letter to
# Creative Commons, PO Box 1866, Mountain View, CA 94042, USA.
#
# CIF created using the CSD Python API on 22 February 2021
# The structure has been converted into the P1 space group
# The structure has a 3D framework
# The original CSD entry JOYRAT is in the monoclinic crystal system
# The framework has been calculated to contain at least 10.0% void space
# The void calculation uses a probe of radius 1.32A, grid spacing 0.4
# The framework is charged, counterions have been retained in the structure
#
###############################################################################

data_JOYRAT
_chemical_formula_moiety         '(C96 H60 Eu2 N4 O26 4-)n'
_symmetry_cell_setting           triclinic
_symmetry_space_group_name_H-M   'P 1'
_symmetry_Int_Tables_number      1
_space_group_name_Hall           'P 1'
loop_
_symmetry_equiv_pos_site_id
_symmetry_equiv_pos_as_xyz
1 x,y,z
_cell_length_a                   15.536(2)
_cell_length_b                   9.5528(5)
_cell_length_c                   21.137(6)
_cell_angle_alpha                90
_cell_angle_beta                 108.136(3)
_cell_angle_gamma                90
_cell_volume                     2981.15
loop_
_atom_site_label
_atom_site_type_symbol
_atom_site_fract_x
_atom_site_fract_y
_atom_site_fract_z
Eu2 Eu 0.39557(2) 0.04475(2) 0.53370(2)
O1 O 0.39094(7) 0.16708(12) 0.43614(6)
O2 O 0.49121(8) 0.07975(14) 0.39157(6)
O4 O 0.31881(8) 0.12181(13) 0.08439(6)
O7 O 0.42871(8) 0.88305(12) 0.46689(6)
O8 O 0.50896(7) 0.77734(12) 0.41213(6)
N1 N 0.15658(8) 0.36555(14) 0.23126(7)
C1 C 0.41681(10) 0.13271(17) 0.38728(9)
C2 C 0.35500(10) 0.15628(16) 0.31729(8)
C3 C 0.37289(10) 0.09347(17) 0.26320(9)
H1 H 0.423018 0.031796 0.270520
C4 C 0.31783(10) 0.12041(16) 0.19845(8)
C5 C 0.33818(10) 0.05712(16) 0.13980(9)
C6 C 0.24568(10) 0.21062(16) 0.18770(8)
H2 H 0.208642 0.230188 0.143552
C7 C 0.22672(10) 0.27358(16) 0.24161(8)
C8 C 0.28216(10) 0.24350(16) 0.30709(9)
H3 H 0.268799 0.283896 0.344025
C9 C 0.11054(11) 0.41835(17) 0.16472(9)
H4 H 0.152265 0.410704 0.137767
H5 H 0.097276 0.518944 0.168086
C10 C 0.02405(10) 0.34484(16) 0.12873(9)
C11 C 0.00011(10) 0.22175(17) 0.15142(9)
H6 H 0.038844 0.179657 0.190718
C17 C 0.14353(11) 0.44022(16) 0.28716(10)
H10 H 0.140212 0.371272 0.321295
H11 H 0.084651 0.489647 0.271920
C18 C 0.21584(11) 0.54405(15) 0.31872(10)
C19 C 0.21577(12) 0.6100(2) 0.37702(10)
H12 H 0.167181 0.594210 0.394490
C20 C 0.28509(12) 0.6981(2) 0.40988(10)
H13 H 0.283781 0.745775 0.449011
C21 C 0.35634(10) 0.71615(16) 0.38527(9)
C22 C 0.43579(10) 0.79753(17) 0.42343(9)
C23 C 0.35455(11) 0.65663(17) 0.32513(9)
H14 H 0.402437 0.674426 0.307162
C24 C 0.28389(12) 0.57218(18) 0.29150(10)
H15 H 0.281796 0.533236 0.249686
Eu5 Eu 0.60443(2) 0.95525(2) 0.46630(2)
O10 O 0.37487(8) 0.05834(11) 0.64568(6)
O12 O 0.24178(8) 0.03427(12) 0.46013(7)
O13 O 0.28243(7) 0.21791(13) 0.52312(6)
O15 O 0.57129(8) 0.11695(12) 0.53311(6)
O16 O 0.49104(7) 0.22266(12) 0.58787(6)
O3 O 0.37487(8) 0.94166(11) 0.14568(6)
Eu6 Eu 0.39557(2) 0.95525(2) 0.03370(2)
O9 O 0.50879(8) 0.92025(14) 0.60843(6)
O11 O 0.31881(8) 0.87819(13) 0.58439(6)
O5 O 0.75822(8) 0.03427(12) 0.03987(7)
C12 C 0.91946(10) 0.15917(17) 0.11695(9)
H7 H 0.902966 0.073181 0.132595
C13 C 0.86200(10) 0.21921(17) 0.05994(9)
C14 C 0.77454(10) 0.15291(18) 0.02361(9)
C15 C 0.88617(11) 0.3421(2) 0.03712(9)
C16 C 0.96640(11) 0.40423(19) 0.07135(10)
H9 H 0.982983 0.489886 0.055456
O6 O 0.71757(7) 0.21791(13) 0.97688(6)
H8 H 0.847513 0.384139 0.997774
Eu3 Eu 0.60443(2) 0.04475(2) 0.96630(2)
C12_2 C 0.08054(10) 0.15917(17) 0.38305(9)
H7_2 H 0.097034 0.073181 0.367405
C13_2 C 0.13800(10) 0.21921(17) 0.44006(9)
C14_2 C 0.22546(10) 0.15291(18) 0.47639(9)
C15_2 C 0.11383(11) 0.3421(2) 0.46288(9)
H8_2 H 0.152487 0.384139 0.502226
C16_2 C 0.03360(11) 0.40423(19) 0.42865(10)
H9_2 H 0.017017 0.489886 0.444544
O1_2 O 0.60906(7) 0.16708(12) 0.06386(6)
O2_2 O 0.50879(8) 0.07975(14) 0.10843(6)
O4_2 O 0.68119(8) 0.12181(13) 0.41561(6)
O7_2 O 0.57129(8) 0.88305(12) 0.03311(6)
O8_2 O 0.49104(7) 0.77734(12) 0.08787(6)
N1_2 N 0.84342(8) 0.36555(14) 0.26874(7)
C1_2 C 0.58319(10) 0.13271(17) 0.11272(9)
C2_2 C 0.64500(10) 0.15628(16) 0.18271(8)
C3_2 C 0.62711(10) 0.09347(17) 0.23680(9)
H1_2 H 0.576982 0.031796 0.229480
C4_2 C 0.68217(10) 0.12041(16) 0.30155(8)
C5_2 C 0.66182(10) 0.05712(16) 0.36020(9)
C6_2 C 0.75432(10) 0.21062(16) 0.31230(8)
H2_2 H 0.791358 0.230188 0.356448
C7_2 C 0.77328(10) 0.27358(16) 0.25839(8)
C8_2 C 0.71784(10) 0.24350(16) 0.19291(9)
H3_2 H 0.731201 0.283896 0.155975
C9_2 C 0.88946(11) 0.41835(17) 0.33528(9)
H4_2 H 0.847735 0.410704 0.362233
H5_2 H 0.902724 0.518944 0.331914
C10_2 C 0.97595(10) 0.34484(16) 0.37127(9)
C11_2 C 0.99989(10) 0.22175(17) 0.34858(9)
H6_2 H 0.961156 0.179657 0.309282
C17_2 C 0.85647(11) 0.44022(16) 0.21284(10)
H10_2 H 0.859788 0.371272 0.178705
H11_2 H 0.915349 0.489647 0.228080
C18_2 C 0.78416(11) 0.54405(15) 0.18128(10)
C19_2 C 0.78423(12) 0.6100(2) 0.12298(10)
H12_2 H 0.832819 0.594210 0.105510
C20_2 C 0.71491(12) 0.6981(2) 0.09012(10)
H13_2 H 0.716219 0.745775 0.050989
C21_2 C 0.64366(10) 0.71615(16) 0.11473(9)
C22_2 C 0.56421(10) 0.79753(17) 0.07657(9)
C23_2 C 0.64545(11) 0.65663(17) 0.17487(9)
H14_2 H 0.597563 0.674426 0.192838
C24_2 C 0.71611(12) 0.57218(18) 0.20850(10)
H15_2 H 0.718204 0.533236 0.250314
O10_2 O 0.62513(8) 0.05834(11) 0.85432(6)
O15_2 O 0.42871(8) 0.11695(12) 0.96689(6)
O16_2 O 0.50896(7) 0.22266(12) 0.91213(6)
O3_2 O 0.62513(8) 0.94166(11) 0.35432(6)
O9_2 O 0.49121(8) 0.92025(14) 0.89157(6)
O11_2 O 0.68119(8) 0.87819(13) 0.91561(6)
O6_2 O 0.28243(7) 0.78209(13) 0.02312(6)
H8_3 H 0.152487 0.615861 0.002226
O5_2 O 0.24178(8) 0.96573(12) 0.96013(7)
C12_3 C 0.08054(10) 0.84083(17) 0.88305(9)
H7_3 H 0.097034 0.926819 0.867405
C13_3 C 0.13800(10) 0.78079(17) 0.94006(9)
C14_3 C 0.22546(10) 0.84709(18) 0.97639(9)
C15_3 C 0.11383(11) 0.6579(2) 0.96288(9)
C16_3 C 0.03360(11) 0.59577(19) 0.92865(10)
H9_3 H 0.017017 0.510114 0.944544
O1_3 O 0.60906(7) 0.83292(12) 0.56386(6)
N1_3 N 0.84342(8) 0.63445(14) 0.76874(7)
C1_3 C 0.58319(10) 0.86729(17) 0.61272(9)
C2_3 C 0.64500(10) 0.84372(16) 0.68271(8)
C3_3 C 0.62711(10) 0.90653(17) 0.73680(9)
H1_3 H 0.576982 0.968204 0.729480
C4_3 C 0.68217(10) 0.87959(16) 0.80155(8)
C5_3 C 0.66182(10) 0.94288(16) 0.86020(9)
C6_3 C 0.75432(10) 0.78938(16) 0.81230(8)
H2_3 H 0.791358 0.769812 0.856448
C7_3 C 0.77328(10) 0.72642(16) 0.75839(8)
C8_3 C 0.71784(10) 0.75650(16) 0.69291(9)
H3_3 H 0.731201 0.716104 0.655975
C9_3 C 0.88946(11) 0.58165(17) 0.83528(9)
H4_3 H 0.847735 0.589296 0.862233
H5_3 H 0.902724 0.481056 0.831914
C10_3 C 0.97595(10) 0.65516(16) 0.87127(9)
C11_3 C 0.99989(10) 0.77825(17) 0.84858(9)
H6_3 H 0.961156 0.820343 0.809282
C17_3 C 0.85647(11) 0.55978(16) 0.71284(10)
H10_3 H 0.859788 0.628728 0.678705
H11_3 H 0.915349 0.510353 0.728080
C18_3 C 0.78416(11) 0.45595(15) 0.68128(10)
C19_3 C 0.78423(12) 0.3900(2) 0.62298(10)
H12_3 H 0.832819 0.405790 0.605510
C20_3 C 0.71491(12) 0.3019(2) 0.59012(10)
H13_3 H 0.716219 0.254225 0.550989
C21_3 C 0.64366(10) 0.28385(16) 0.61473(9)
C22_3 C 0.56421(10) 0.20247(17) 0.57657(9)
C23_3 C 0.64545(11) 0.34337(17) 0.67487(9)
H14_3 H 0.597563 0.325574 0.692838
C24_3 C 0.71611(12) 0.42782(18) 0.70850(10)
H15_3 H 0.718204 0.466764 0.750314
O12_2 O 0.75822(8) 0.96573(12) 0.53987(7)
O13_2 O 0.71757(7) 0.78209(13) 0.47688(6)
O1_4 O 0.39094(7) 0.83292(12) 0.93614(6)
N1_4 N 0.15658(8) 0.63445(14) 0.73126(7)
C1_4 C 0.41681(10) 0.86729(17) 0.88728(9)
C2_4 C 0.35500(10) 0.84372(16) 0.81729(8)
C3_4 C 0.37289(10) 0.90653(17) 0.76320(9)
H1_4 H 0.423018 0.968204 0.770520
C4_4 C 0.31783(10) 0.87959(16) 0.69845(8)
C5_4 C 0.33818(10) 0.94288(16) 0.63980(9)
C6_4 C 0.24568(10) 0.78938(16) 0.68770(8)
H2_4 H 0.208642 0.769812 0.643552
C7_4 C 0.22672(10) 0.72642(16) 0.74161(8)
C8_4 C 0.28216(10) 0.75650(16) 0.80709(9)
H3_4 H 0.268799 0.716104 0.844025
C9_4 C 0.11054(11) 0.58165(17) 0.66472(9)
H4_4 H 0.152265 0.589296 0.637767
H5_4 H 0.097276 0.481056 0.668086
C10_4 C 0.02405(10) 0.65516(16) 0.62873(9)
C11_4 C 0.00011(10) 0.77825(17) 0.65142(9)
H6_4 H 0.038844 0.820343 0.690718
C17_4 C 0.14353(11) 0.55978(16) 0.78716(10)
H10_4 H 0.140212 0.628728 0.821295
H11_4 H 0.084651 0.510353 0.771920
C18_4 C 0.21584(11) 0.45595(15) 0.81872(10)
C19_4 C 0.21577(12) 0.3900(2) 0.87702(10)
H12_4 H 0.167181 0.405790 0.894490
C20_4 C 0.28509(12) 0.3019(2) 0.90988(10)
H13_4 H 0.283781 0.254225 0.949011
C21_4 C 0.35634(10) 0.28385(16) 0.88527(9)
C22_4 C 0.43579(10) 0.20247(17) 0.92343(9)
C23_4 C 0.35455(11) 0.34337(17) 0.82513(9)
H14_4 H 0.402437 0.325574 0.807162
C24_4 C 0.28389(12) 0.42782(18) 0.79150(10)
H15_4 H 0.281796 0.466764 0.749686
C12_4 C 0.91946(10) 0.84083(17) 0.61695(9)
H7_4 H 0.902966 0.926819 0.632595
C13_4 C 0.86200(10) 0.78079(17) 0.55994(9)
C14_4 C 0.77454(10) 0.84709(18) 0.52361(9)
C15_4 C 0.88617(11) 0.6579(2) 0.53712(9)
H8_4 H 0.847513 0.615861 0.497774
C16_4 C 0.96640(11) 0.59577(19) 0.57135(10)
H9_4 H 0.982983 0.510114 0.555456
loop_
_geom_bond_atom_site_label_1
_geom_bond_atom_site_label_2
_geom_bond_site_symmetry_1
_geom_bond_site_symmetry_2
Eu2 O1 1_555 1_555
O1 C1 1_555 1_555
O2 C1 1_555 1_555
O4 C5 1_555 1_555
O7 C22 1_555 1_555
O8 C22 1_555 1_555
N1 C7 1_555 1_555
C1 C2 1_555 1_555
C2 C3 1_555 1_555
C3 H1 1_555 1_555
C4 C3 1_555 1_555
C5 C4 1_555 1_555
C6 C4 1_555 1_555
H2 C6 1_555 1_555
C7 C6 1_555 1_555
C8 C2 1_555 1_555
H3 C8 1_555 1_555
C9 N1 1_555 1_555
H4 C9 1_555 1_555
H5 C9 1_555 1_555
C10 C9 1_555 1_555
C11 C10 1_555 1_555
H6 C11 1_555 1_555
C17 N1 1_555 1_555
H10 C17 1_555 1_555
H11 C17 1_555 1_555
C18 C17 1_555 1_555
C19 C18 1_555 1_555
H12 C19 1_555 1_555
C20 C19 1_555 1_555
H13 C20 1_555 1_555
C21 C20 1_555 1_555
C22 C21 1_555 1_555
C23 C21 1_555 1_555
H14 C23 1_555 1_555
C24 C18 1_555 1_555
H15 C24 1_555 1_555
Eu5 O7 1_555 1_555
O10 Eu2 1_555 1_555
O12 Eu2 1_555 1_555
O13 Eu2 1_555 1_555
O15 Eu2 1_555 1_555
O16 Eu2 1_555 1_555
O8 Eu5 1_555 1_555
C7 C8 1_555 1_555
C23 C24 1_555 1_555
Eu6 O3 1_555 1_555
O5 C14 1_555 1_555
H7 C12 1_555 1_555
C13 C12 1_555 1_555
C14 C13 1_555 1_555
C15 C13 1_555 1_555
H9 C16 1_555 1_555
C15 C16 1_555 1_555
O6 Eu3 1_555 1_555
O12 C14_2 1_555 1_555
O13 C14_2 1_555 1_555
H7_2 C12_2 1_555 1_555
C13_2 C12_2 1_555 1_555
C14_2 C13_2 1_555 1_555
C15_2 C13_2 1_555 1_555
H8_2 C15_2 1_555 1_555
H9_2 C16_2 1_555 1_555
C15_2 C16_2 1_555 1_555
O1_2 C1_2 1_555 1_555
O2_2 C1_2 1_555 1_555
O4_2 C5_2 1_555 1_555
O7_2 C22_2 1_555 1_555
O8_2 C22_2 1_555 1_555
N1_2 C7_2 1_555 1_555
C1_2 C2_2 1_555 1_555
C2_2 C3_2 1_555 1_555
C3_2 H1_2 1_555 1_555
C4_2 C3_2 1_555 1_555
C5_2 C4_2 1_555 1_555
C6_2 C4_2 1_555 1_555
H2_2 C6_2 1_555 1_555
C7_2 C6_2 1_555 1_555
C8_2 C2_2 1_555 1_555
H3_2 C8_2 1_555 1_555
C9_2 N1_2 1_555 1_555
H4_2 C9_2 1_555 1_555
H5_2 C9_2 1_555 1_555
C10_2 C9_2 1_555 1_555
C11_2 C10_2 1_555 1_555
H6_2 C11_2 1_555 1_555
C17_2 N1_2 1_555 1_555
H10_2 C17_2 1_555 1_555
H11_2 C17_2 1_555 1_555
C18_2 C17_2 1_555 1_555
C19_2 C18_2 1_555 1_555
H12_2 C19_2 1_555 1_555
C20_2 C19_2 1_555 1_555
H13_2 C20_2 1_555 1_555
C21_2 C20_2 1_555 1_555
C22_2 C21_2 1_555 1_555
C23_2 C21_2 1_555 1_555
H14_2 C23_2 1_555 1_555
C24_2 C18_2 1_555 1_555
H15_2 C24_2 1_555 1_555
Eu6 O7_2 1_555 1_555
O8_2 Eu6 1_555 1_555
C7_2 C8_2 1_555 1_555
C23_2 C24_2 1_555 1_555
O10_2 Eu3 1_555 1_555
O15_2 Eu3 1_555 1_555
O16_2 Eu3 1_555 1_555
Eu5 O3_2 1_555 1_555
O6_2 Eu6 1_555 1_555
O5_2 C14_3 1_555 1_555
H7_3 C12_3 1_555 1_555
C13_3 C12_3 1_555 1_555
C14_3 C13_3 1_555 1_555
C15_3 C13_3 1_555 1_555
H9_3 C16_3 1_555 1_555
C15_3 C16_3 1_555 1_555
Eu5 O1_3 1_555 1_555
O1_3 C1_3 1_555 1_555
O9 C1_3 1_555 1_555
O11_2 C5_3 1_555 1_555
O15 C22_3 1_555 1_555
O16 C22_3 1_555 1_555
N1_3 C7_3 1_555 1_555
C1_3 C2_3 1_555 1_555
C2_3 C3_3 1_555 1_555
C3_3 H1_3 1_555 1_555
C4_3 C3_3 1_555 1_555
C5_3 C4_3 1_555 1_555
C6_3 C4_3 1_555 1_555
H2_3 C6_3 1_555 1_555
C7_3 C6_3 1_555 1_555
C8_3 C2_3 1_555 1_555
H3_3 C8_3 1_555 1_555
C9_3 N1_3 1_555 1_555
H4_3 C9_3 1_555 1_555
H5_3 C9_3 1_555 1_555
C10_3 C9_3 1_555 1_555
C11_3 C10_3 1_555 1_555
H6_3 C11_3 1_555 1_555
C17_3 N1_3 1_555 1_555
H10_3 C17_3 1_555 1_555
H11_3 C17_3 1_555 1_555
C18_3 C17_3 1_555 1_555
C19_3 C18_3 1_555 1_555
H12_3 C19_3 1_555 1_555
C20_3 C19_3 1_555 1_555
H13_3 C20_3 1_555 1_555
C21_3 C20_3 1_555 1_555
C22_3 C21_3 1_555 1_555
C23_3 C21_3 1_555 1_555
H14_3 C23_3 1_555 1_555
C24_3 C18_3 1_555 1_555
H15_3 C24_3 1_555 1_555
O12_2 Eu5 1_555 1_555
O13_2 Eu5 1_555 1_555
C7_3 C8_3 1_555 1_555
C23_3 C24_3 1_555 1_555
O1_4 C1_4 1_555 1_555
O9_2 C1_4 1_555 1_555
O11 C5_4 1_555 1_555
O15_2 C22_4 1_555 1_555
O16_2 C22_4 1_555 1_555
N1_4 C7_4 1_555 1_555
C1_4 C2_4 1_555 1_555
C2_4 C3_4 1_555 1_555
C3_4 H1_4 1_555 1_555
C4_4 C3_4 1_555 1_555
C5_4 C4_4 1_555 1_555
C6_4 C4_4 1_555 1_555
H2_4 C6_4 1_555 1_555
C7_4 C6_4 1_555 1_555
C8_4 C2_4 1_555 1_555
H3_4 C8_4 1_555 1_555
C9_4 N1_4 1_555 1_555
H4_4 C9_4 1_555 1_555
H5_4 C9_4 1_555 1_555
C10_4 C9_4 1_555 1_555
C11_4 C10_4 1_555 1_555
H6_4 C11_4 1_555 1_555
C17_4 N1_4 1_555 1_555
H10_4 C17_4 1_555 1_555
H11_4 C17_4 1_555 1_555
C18_4 C17_4 1_555 1_555
C19_4 C18_4 1_555 1_555
H12_4 C19_4 1_555 1_555
C20_4 C19_4 1_555 1_555
H13_4 C20_4 1_555 1_555
C21_4 C20_4 1_555 1_555
C22_4 C21_4 1_555 1_555
C23_4 C21_4 1_555 1_555
H14_4 C23_4 1_555 1_555
C24_4 C18_4 1_555 1_555
H15_4 C24_4 1_555 1_555
C7_4 C8_4 1_555 1_555
C23_4 C24_4 1_555 1_555
O12_2 C14_4 1_555 1_555
O13_2 C14_4 1_555 1_555
H7_4 C12_4 1_555 1_555
C13_4 C12_4 1_555 1_555
C14_4 C13_4 1_555 1_555
C15_4 C13_4 1_555 1_555
H8_4 C15_4 1_555 1_555
H9_4 C16_4 1_555 1_555
C15_4 C16_4 1_555 1_555

#END
