
###############################################################################
#
# This file contains modified crystal structure data generated from the
# MOF subset of the Cambridge Structural Database (CSD) v542 
# hosted by the Cambridge Crystallographic Data Centre (CCDC).
#
# This work is licensed under the Creative Commons
# Attribution-NonCommercial-ShareAlike 4.0 International License.
# To view a copy of this license, visit
# http://creativecommons.org/licenses/by-nc-sa/4.0/
# or send a letter to
# Creative Commons, PO Box 1866, Mountain View, CA 94042, USA.
#
# CIF created using the CSD Python API on 22 February 2021
# The structure has been converted into the P1 space group
# The structure has a 3D framework
# The original CSD entry JUKYAS is in the monoclinic crystal system
# The framework has been calculated to contain at least 10.0% void space
# The void calculation uses a probe of radius 1.32A, grid spacing 0.4
#
###############################################################################

data_JUKYAS
_chemical_formula_moiety         '(C176 H160 Cu12 N48 O96)n'
_symmetry_cell_setting           triclinic
_symmetry_space_group_name_H-M   'P 1'
_symmetry_Int_Tables_number      1
_space_group_name_Hall           'P 1'
loop_
_symmetry_equiv_pos_site_id
_symmetry_equiv_pos_as_xyz
1 x,y,z
_cell_length_a                   21.36270(14)
_cell_length_b                   12.54960(19)
_cell_length_c                   26.3142(2)
_cell_angle_alpha                90
_cell_angle_beta                 109.2630(15)
_cell_angle_gamma                90
_cell_volume                     6659.7
loop_
_atom_site_label
_atom_site_type_symbol
_atom_site_fract_x
_atom_site_fract_y
_atom_site_fract_z
O3 O 0.35914(11) 0.18875(15) 0.82054(8)
O4 O 0.39613(11) 0.19581(16) 0.90960(8)
C6 C 0.39134(14) 0.1539(2) 0.86645(11)
C8 C 0.41139(13) 0.0013(2) 0.81401(10)
H4 H 0.424333 0.048548 0.790057
C13 C 0.42717(17) 0.0526(2) 0.86818(11)
H11 H 0.415867 0.003784 0.892367
H12 H 0.474487 0.066047 0.882616
Cu4 Cu 0.36628(2) 0.31258(2) 0.94993(2)
Cu6 Cu 0.31416(2) 0.31983(3) 0.81138(2)
Cu1 Cu 0.36628(2) 0.68742(2) 0.44993(2)
O1 O 0.76939(10) 0.79635(17) 0.90886(7)
O2 O 0.41151(10) 0.43354(15) 0.92966(7)
O5 O 0.53679(10) 0.98304(16) 0.81341(8)
O6 O 0.45433(10) 0.72827(15) 0.51736(8)
O7 O 0.72952(9) 0.80333(17) 0.82022(7)
O8 O 0.36142(10) 0.81603(16) 0.83342(9)
O9 O 0.53480(11) 0.63074(17) 0.82043(9)
O10 O 0.35906(14) 0.44411(19) 0.84253(9)
O11 O 0.45994(12) 0.86060(19) 0.56997(8)
O12 O 0.36788(9) 0.82136(15) 0.50759(8)
N1 N 0.30021(11) 0.36375(17) 0.73483(8)
N2 N 0.33825(11) 0.59230(17) 0.50525(8)
N3 N 0.44533(10) 0.90136(16) 0.81766(8)
N4 N 0.44567(11) 0.72021(17) 0.82444(9)
N5 N 0.53652(11) 0.80634(17) 0.81493(8)
N6 N 0.42801(12) 0.80470(18) 0.53252(9)
C1 C 0.30745(13) 0.4458(2) 0.63973(10)
C2 C 0.26946(14) 0.5590(2) 0.55791(11)
H1 H 0.229488 0.571372 0.563828
C3 C 0.72305(13) 0.79995(19) 0.86547(10)
C4 C 0.31593(13) 0.4933(2) 0.59128(10)
C5 C 0.28238(13) 0.6066(2) 0.51567(10)
H2 H 0.250299 0.651145 0.493177
C7 C 0.39922(14) 0.4764(2) 0.88575(11)
H3 H 0.363947 0.989587 0.798890
C9 C 0.41139(15) 0.6218(2) 0.82693(11)
H5 H 0.419116 0.570701 0.802003
H6 H 0.364086 0.635262 0.816097
C10 C 0.43483(17) 0.5759(3) 0.88289(12)
H7 H 0.482013 0.561490 0.893500
H8 H 0.427743 0.627492 0.907889
C11 C 0.38209(14) 0.5261(2) 0.53640(11)
H9 H 0.420824 0.512922 0.528648
C12 C 0.37334(14) 0.4759(2) 0.57947(11)
H10 H 0.405793 0.430248 0.600704
C14 C 0.27843(13) 0.4593(2) 0.71879(11)
H13 H 0.260584 0.499755 0.740281
C15 C 0.50853(13) 0.9030(2) 0.81572(9)
C16 C 0.50752(14) 0.7131(2) 0.81994(10)
C17 C 0.65437(13) 0.7981(2) 0.86742(10)
H14 H 0.648248 0.858293 0.888453
H15 H 0.647965 0.733489 0.885301
C18 C 0.28073(14) 0.5024(2) 0.67190(11)
H16 H 0.264084 0.570490 0.661780
C19 C 0.60323(13) 0.8029(2) 0.81221(10)
H17 H 0.610804 0.865839 0.793616
H18 H 0.607771 0.740911 0.791714
C20 C 0.41377(13) 0.8130(2) 0.82627(10)
C21 C 0.32839(16) 0.3454(2) 0.65550(11)
H19 H 0.345721 0.303010 0.634379
C22 C 0.32377(16) 0.3070(2) 0.70287(11)
H20 H 0.337873 0.237690 0.713018
Cu5 Cu 0.86628(2) 0.81258(2) 0.94993(2)
Cu7 Cu 0.81416(2) 0.81983(3) 0.81138(2)
O13 O 0.26939(10) 0.70365(17) 0.40886(7)
O14 O 0.41151(10) 0.56646(15) 0.42966(7)
O16 O 0.39613(11) 0.80419(16) 0.40960(8)
O17 O 0.22952(9) 0.30333(17) 0.82022(7)
O1_2 O 0.26939(10) 0.29635(17) 0.90886(7)
O5_2 O 0.03679(10) 0.48304(16) 0.81341(8)
O9_2 O 0.03480(11) 0.13074(17) 0.82043(9)
N5_2 N 0.03652(11) 0.30634(17) 0.81493(8)
C3_2 C 0.22305(13) 0.29995(19) 0.86547(10)
C15_2 C 0.00853(13) 0.4030(2) 0.81572(9)
C16_2 C 0.00752(14) 0.2131(2) 0.81994(10)
C17_2 C 0.15437(13) 0.2981(2) 0.86742(10)
H14_2 H 0.148248 0.358293 0.888453
H15_2 H 0.147965 0.233489 0.885301
C19_2 C 0.10323(13) 0.3029(2) 0.81221(10)
H17_2 H 0.110804 0.365839 0.793616
H18_2 H 0.107771 0.240911 0.791714
Cu1_2 Cu 0.86628(2) 0.18742(2) 0.44993(2)
O3_2 O 0.85914(11) 0.68875(15) 0.82054(8)
O4_2 O 0.89613(11) 0.69581(16) 0.90960(8)
O6_2 O 0.95433(10) 0.22827(15) 0.51736(8)
O8_2 O 0.86142(10) 0.31603(16) 0.83342(9)
O11_2 O 0.95994(12) 0.36060(19) 0.56997(8)
O12_2 O 0.86788(9) 0.32136(15) 0.50759(8)
N2_2 N 0.83825(11) 0.09230(17) 0.50525(8)
N3_2 N 0.94533(10) 0.40136(16) 0.81766(8)
N4_2 N 0.94567(11) 0.22021(17) 0.82444(9)
N6_2 N 0.92801(12) 0.30470(18) 0.53252(9)
C2_2 C 0.76946(14) 0.0590(2) 0.55791(11)
H1_2 H 0.729488 0.071372 0.563828
C5_2 C 0.78238(13) 0.1066(2) 0.51567(10)
H2_2 H 0.750299 0.151145 0.493177
C6_2 C 0.89134(14) 0.6539(2) 0.86645(11)
C8_2 C 0.91139(13) 0.5013(2) 0.81401(10)
H3_2 H 0.863947 0.489587 0.798890
H4_2 H 0.924333 0.548548 0.790057
C9_2 C 0.91139(15) 0.1218(2) 0.82693(11)
H5_2 H 0.919116 0.070701 0.802003
H6_2 H 0.864086 0.135262 0.816097
C10_2 C 0.93483(17) 0.0759(3) 0.88289(12)
H7_2 H 0.982013 0.061490 0.893500
H8_2 H 0.927743 0.127492 0.907889
C11_2 C 0.88209(14) 0.0261(2) 0.53640(11)
H9_2 H 0.920824 0.012922 0.528648
C13_2 C 0.92717(17) 0.5526(2) 0.86818(11)
H11_2 H 0.915867 0.503784 0.892367
H12_2 H 0.974487 0.566047 0.882616
C18_2 C 0.78073(14) 0.0024(2) 0.67190(11)
H16_2 H 0.764084 0.070490 0.661780
C20_2 C 0.91377(13) 0.3130(2) 0.82627(10)
O13_2 O 0.76939(10) 0.20365(17) 0.40886(7)
O14_2 O 0.91151(10) 0.06646(15) 0.42966(7)
O16_2 O 0.89613(11) 0.30419(16) 0.40960(8)
O2_2 O 0.91151(10) 0.93354(15) 0.92966(7)
O10_2 O 0.85906(14) 0.94411(19) 0.84253(9)
N1_2 N 0.80021(11) 0.86375(17) 0.73483(8)
C1_2 C 0.80745(13) 0.9458(2) 0.63973(10)
C4_2 C 0.81593(13) 0.9933(2) 0.59128(10)
C7_2 C 0.89922(14) 0.9764(2) 0.88575(11)
C12_2 C 0.87334(14) 0.9759(2) 0.57947(11)
H10_2 H 0.905793 0.930248 0.600704
C14_2 C 0.77843(13) 0.9593(2) 0.71879(11)
H13_2 H 0.760584 0.999755 0.740281
C21_2 C 0.82839(16) 0.8454(2) 0.65550(11)
H19_2 H 0.845721 0.803010 0.634379
C22_2 C 0.82377(16) 0.8070(2) 0.70287(11)
H20_2 H 0.837873 0.737690 0.713018
Cu2 Cu 0.31416(2) 0.68017(3) 0.31138(2)
O5_3 O 0.53679(10) 0.01696(16) 0.31341(8)
O6_3 O 0.45433(10) 0.27173(15) 0.01736(8)
O7_2 O 0.72952(9) 0.19667(17) 0.32022(7)
O8_3 O 0.36142(10) 0.18397(16) 0.33342(9)
O9_3 O 0.53480(11) 0.36926(17) 0.32043(9)
O10_3 O 0.35906(14) 0.55589(19) 0.34253(9)
O11_3 O 0.45994(12) 0.13940(19) 0.06997(8)
O12_3 O 0.36788(9) 0.17864(15) 0.00759(8)
N1_3 N 0.30021(11) 0.63625(17) 0.23483(8)
N2_3 N 0.33825(11) 0.40770(17) 0.00525(8)
N3_3 N 0.44533(10) 0.09864(16) 0.31766(8)
N4_3 N 0.44567(11) 0.27979(17) 0.32444(9)
N5_3 N 0.53652(11) 0.19366(17) 0.31493(8)
N6_3 N 0.42801(12) 0.19530(18) 0.03252(9)
C1_3 C 0.30745(13) 0.5542(2) 0.13973(10)
C2_3 C 0.26946(14) 0.4410(2) 0.05791(11)
H1_3 H 0.229488 0.428628 0.063828
C3_3 C 0.72305(13) 0.20005(19) 0.36547(10)
C4_3 C 0.31593(13) 0.5067(2) 0.09128(10)
C5_3 C 0.28238(13) 0.3934(2) 0.01567(10)
C7_3 C 0.39922(14) 0.5236(2) 0.38575(11)
H3_3 H 0.363947 0.010413 0.298890
C9_3 C 0.41139(15) 0.3782(2) 0.32693(11)
H5_3 H 0.419116 0.429299 0.302003
H6_3 H 0.364086 0.364738 0.316097
C10_3 C 0.43483(17) 0.4241(3) 0.38289(12)
H7_3 H 0.482013 0.438510 0.393500
H8_3 H 0.427743 0.372508 0.407889
C11_3 C 0.38209(14) 0.4739(2) 0.03640(11)
H9_3 H 0.420824 0.487078 0.028648
C12_3 C 0.37334(14) 0.5241(2) 0.07947(11)
H10_3 H 0.405793 0.569752 0.100704
C14_3 C 0.27843(13) 0.5407(2) 0.21879(11)
H13_3 H 0.260584 0.500245 0.240281
C15_3 C 0.50853(13) 0.0970(2) 0.31572(9)
C16_3 C 0.50752(14) 0.2869(2) 0.31994(10)
C17_3 C 0.65437(13) 0.2019(2) 0.36742(10)
H14_3 H 0.648248 0.141707 0.388453
H15_3 H 0.647965 0.266511 0.385301
C18_3 C 0.28073(14) 0.4976(2) 0.17190(11)
H16_3 H 0.264084 0.429510 0.161780
C19_3 C 0.60323(13) 0.1971(2) 0.31221(10)
H17_3 H 0.610804 0.134161 0.293616
H18_3 H 0.607771 0.259089 0.291714
C20_3 C 0.41377(13) 0.1870(2) 0.32627(10)
C21_3 C 0.32839(16) 0.6546(2) 0.15550(11)
H19_3 H 0.345721 0.696990 0.134379
C22_3 C 0.32377(16) 0.6930(2) 0.20287(11)
H20_3 H 0.337873 0.762310 0.213018
Cu7_2 Cu 0.81416(2) 0.18017(3) 0.31138(2)
O15 O 0.35914(11) 0.81125(15) 0.32054(8)
O17_2 O 0.22952(9) 0.69667(17) 0.32022(7)
H2_3 H 0.250299 0.348855 0.993177
C6_3 C 0.39134(14) 0.8461(2) 0.36645(11)
C8_3 C 0.41139(13) 0.9987(2) 0.31401(10)
H4_3 H 0.424333 0.951452 0.290057
C13_3 C 0.42717(17) 0.9474(2) 0.36818(11)
H11_3 H 0.415867 0.996216 0.392367
H12_3 H 0.474487 0.933953 0.382616
O5_4 O 0.03679(10) 0.51696(16) 0.31341(8)
O9_4 O 0.03480(11) 0.86926(17) 0.32043(9)
N5_4 N 0.03652(11) 0.69366(17) 0.31493(8)
C3_4 C 0.22305(13) 0.70005(19) 0.36547(10)
C15_4 C 0.00853(13) 0.5970(2) 0.31572(9)
C16_4 C 0.00752(14) 0.7869(2) 0.31994(10)
C17_4 C 0.15437(13) 0.7019(2) 0.36742(10)
H14_4 H 0.148248 0.641707 0.388453
H15_4 H 0.147965 0.766511 0.385301
C19_4 C 0.10323(13) 0.6971(2) 0.31221(10)
H17_4 H 0.110804 0.634161 0.293616
H18_4 H 0.107771 0.759089 0.291714
O10_4 O 0.85906(14) 0.05589(19) 0.34253(9)
N1_4 N 0.80021(11) 0.13625(17) 0.23483(8)
C1_4 C 0.80745(13) 0.0542(2) 0.13973(10)
C4_4 C 0.81593(13) 0.0067(2) 0.09128(10)
C7_4 C 0.89922(14) 0.0236(2) 0.38575(11)
C12_4 C 0.87334(14) 0.0241(2) 0.07947(11)
H10_4 H 0.905793 0.069752 0.100704
C14_4 C 0.77843(13) 0.0407(2) 0.21879(11)
H13_4 H 0.760584 0.000245 0.240281
C21_4 C 0.82839(16) 0.1546(2) 0.15550(11)
H19_4 H 0.845721 0.196990 0.134379
C22_4 C 0.82377(16) 0.1930(2) 0.20287(11)
H20_4 H 0.837873 0.262310 0.213018
O15_2 O 0.85914(11) 0.31125(15) 0.32054(8)
O6_4 O 0.95433(10) 0.77173(15) 0.01736(8)
O8_4 O 0.86142(10) 0.68397(16) 0.33342(9)
O11_4 O 0.95994(12) 0.63940(19) 0.06997(8)
O12_4 O 0.86788(9) 0.67864(15) 0.00759(8)
N2_4 N 0.83825(11) 0.90770(17) 0.00525(8)
N3_4 N 0.94533(10) 0.59864(16) 0.31766(8)
N4_4 N 0.94567(11) 0.77979(17) 0.32444(9)
N6_4 N 0.92801(12) 0.69530(18) 0.03252(9)
C2_4 C 0.76946(14) 0.9410(2) 0.05791(11)
H1_4 H 0.729488 0.928628 0.063828
C5_4 C 0.78238(13) 0.8934(2) 0.01567(10)
C6_4 C 0.89134(14) 0.3461(2) 0.36645(11)
C8_4 C 0.91139(13) 0.4987(2) 0.31401(10)
H3_4 H 0.863947 0.510413 0.298890
H4_4 H 0.924333 0.451452 0.290057
C9_4 C 0.91139(15) 0.8782(2) 0.32693(11)
H5_4 H 0.919116 0.929299 0.302003
H6_4 H 0.864086 0.864738 0.316097
C10_4 C 0.93483(17) 0.9241(3) 0.38289(12)
H7_4 H 0.982013 0.938510 0.393500
H8_4 H 0.927743 0.872508 0.407889
C11_4 C 0.88209(14) 0.9739(2) 0.03640(11)
H9_4 H 0.920824 0.987078 0.028648
C13_4 C 0.92717(17) 0.4474(2) 0.36818(11)
H11_4 H 0.915867 0.496216 0.392367
H12_4 H 0.974487 0.433953 0.382616
C18_4 C 0.78073(14) 0.9976(2) 0.17190(11)
H16_4 H 0.764084 0.929510 0.161780
C20_4 C 0.91377(13) 0.6870(2) 0.32627(10)
H2_4 H 0.750299 0.848855 0.993177
O3_3 O 0.64086(11) 0.18875(15) 0.67946(8)
O4_3 O 0.60387(11) 0.19581(16) 0.59040(8)
C6_5 C 0.60866(14) 0.1539(2) 0.63355(11)
C8_5 C 0.58861(13) 0.0013(2) 0.68599(10)
H4_5 H 0.575667 0.048548 0.709943
C13_5 C 0.57283(17) 0.0526(2) 0.63182(11)
H11_5 H 0.584133 0.003784 0.607633
H12_5 H 0.525513 0.066047 0.617384
Cu4_2 Cu 0.63372(2) 0.31258(2) 0.55007(2)
Cu6_2 Cu 0.68584(2) 0.31983(3) 0.68862(2)
Cu1_3 Cu 0.63372(2) 0.68742(2) 0.05007(2)
H2_5 H 0.749701 0.651145 0.006823
O13_3 O 0.73061(10) 0.70365(17) 0.09114(7)
O14_3 O 0.58849(10) 0.56646(15) 0.07034(7)
O16_3 O 0.60387(11) 0.80419(16) 0.09040(8)
O1_3 O 0.23061(10) 0.79635(17) 0.59114(7)
O2_3 O 0.58849(10) 0.43354(15) 0.57034(7)
O5_5 O 0.46321(10) 0.98304(16) 0.68659(8)
O6_5 O 0.54567(10) 0.72827(15) 0.98264(8)
O7_3 O 0.27048(9) 0.80333(17) 0.67978(7)
O8_5 O 0.63858(10) 0.81603(16) 0.66658(9)
O9_5 O 0.46520(11) 0.63074(17) 0.67957(9)
O10_5 O 0.64094(14) 0.44411(19) 0.65747(9)
O11_5 O 0.54006(12) 0.86060(19) 0.93003(8)
O12_5 O 0.63212(9) 0.82136(15) 0.99241(8)
N1_5 N 0.69979(11) 0.36375(17) 0.76517(8)
N2_5 N 0.66175(11) 0.59230(17) 0.99475(8)
N3_5 N 0.55467(10) 0.90136(16) 0.68234(8)
N4_5 N 0.55433(11) 0.72021(17) 0.67556(9)
N5_5 N 0.46348(11) 0.80634(17) 0.68507(8)
N6_5 N 0.57199(12) 0.80470(18) 0.96748(9)
C1_5 C 0.69255(13) 0.4458(2) 0.86027(10)
C2_5 C 0.73054(14) 0.5590(2) 0.94209(11)
H1_5 H 0.770512 0.571372 0.936172
C3_5 C 0.27695(13) 0.79995(19) 0.63453(10)
C4_5 C 0.68407(13) 0.4933(2) 0.90872(10)
C5_5 C 0.71762(13) 0.6066(2) 0.98433(10)
C7_5 C 0.60078(14) 0.4764(2) 0.61425(11)
H3_5 H 0.636053 0.989587 0.701110
C9_5 C 0.58861(15) 0.6218(2) 0.67307(11)
H5_5 H 0.580884 0.570701 0.697997
H6_5 H 0.635914 0.635262 0.683903
C10_5 C 0.56517(17) 0.5759(3) 0.61711(12)
H7_5 H 0.517987 0.561490 0.606500
H8_5 H 0.572257 0.627492 0.592111
C11_5 C 0.61791(14) 0.5261(2) 0.96360(11)
H9_5 H 0.579176 0.512922 0.971352
C12_5 C 0.62666(14) 0.4759(2) 0.92053(11)
H10_5 H 0.594207 0.430248 0.899296
C14_5 C 0.72157(13) 0.4593(2) 0.78121(11)
H13_5 H 0.739416 0.499755 0.759719
C15_5 C 0.49147(13) 0.9030(2) 0.68428(9)
C16_5 C 0.49248(14) 0.7131(2) 0.68006(10)
C17_5 C 0.34563(13) 0.7981(2) 0.63258(10)
H14_5 H 0.351752 0.858293 0.611547
H15_5 H 0.352035 0.733489 0.614699
C18_5 C 0.71927(14) 0.5024(2) 0.82810(11)
H16_5 H 0.735916 0.570490 0.838220
C19_5 C 0.39677(13) 0.8029(2) 0.68779(10)
H17_5 H 0.389196 0.865839 0.706384
H18_5 H 0.392229 0.740911 0.708286
C20_5 C 0.58623(13) 0.8130(2) 0.67373(10)
C21_5 C 0.67161(16) 0.3454(2) 0.84450(11)
H19_5 H 0.654279 0.303010 0.865621
C22_5 C 0.67623(16) 0.3070(2) 0.79713(11)
H20_5 H 0.662127 0.237690 0.786982
Cu5_2 Cu 0.13372(2) 0.81258(2) 0.55007(2)
Cu7_3 Cu 0.18584(2) 0.81983(3) 0.68862(2)
O17_3 O 0.77048(9) 0.30333(17) 0.67978(7)
Cu1_4 Cu 0.13372(2) 0.18742(2) 0.05007(2)
H2_6 H 0.249701 0.151145 0.006823
O13_4 O 0.23061(10) 0.20365(17) 0.09114(7)
O14_4 O 0.08849(10) 0.06646(15) 0.07034(7)
O16_4 O 0.10387(11) 0.30419(16) 0.09040(8)
O3_4 O 0.14086(11) 0.68875(15) 0.67946(8)
O4_4 O 0.10387(11) 0.69581(16) 0.59040(8)
O6_6 O 0.04567(10) 0.22827(15) 0.98264(8)
O8_6 O 0.13858(10) 0.31603(16) 0.66658(9)
O11_6 O 0.04006(12) 0.36060(19) 0.93003(8)
O12_6 O 0.13212(9) 0.32136(15) 0.99241(8)
N2_6 N 0.16175(11) 0.09230(17) 0.99475(8)
N3_6 N 0.05467(10) 0.40136(16) 0.68234(8)
N4_6 N 0.05433(11) 0.22021(17) 0.67556(9)
N6_6 N 0.07199(12) 0.30470(18) 0.96748(9)
C2_6 C 0.23054(14) 0.0590(2) 0.94209(11)
H1_6 H 0.270512 0.071372 0.936172
C5_6 C 0.21762(13) 0.1066(2) 0.98433(10)
C6_6 C 0.10866(14) 0.6539(2) 0.63355(11)
C8_6 C 0.08861(13) 0.5013(2) 0.68599(10)
H3_6 H 0.136053 0.489587 0.701110
H4_6 H 0.075667 0.548548 0.709943
C9_6 C 0.08861(15) 0.1218(2) 0.67307(11)
H5_6 H 0.080884 0.070701 0.697997
H6_6 H 0.135914 0.135262 0.683903
C10_6 C 0.06517(17) 0.0759(3) 0.61711(12)
H7_6 H 0.017987 0.061490 0.606500
H8_6 H 0.072257 0.127492 0.592111
C11_6 C 0.11791(14) 0.0261(2) 0.96360(11)
H9_6 H 0.079176 0.012922 0.971352
C13_6 C 0.07283(17) 0.5526(2) 0.63182(11)
H11_6 H 0.084133 0.503784 0.607633
H12_6 H 0.025513 0.566047 0.617384
C18_6 C 0.21927(14) 0.0024(2) 0.82810(11)
H16_6 H 0.235916 0.070490 0.838220
C20_6 C 0.08623(13) 0.3130(2) 0.67373(10)
O2_4 O 0.08849(10) 0.93354(15) 0.57034(7)
O10_6 O 0.14094(14) 0.94411(19) 0.65747(9)
N1_6 N 0.19979(11) 0.86375(17) 0.76517(8)
C1_6 C 0.19255(13) 0.9458(2) 0.86027(10)
C4_6 C 0.18407(13) 0.9933(2) 0.90872(10)
C7_6 C 0.10078(14) 0.9764(2) 0.61425(11)
C12_6 C 0.12666(14) 0.9759(2) 0.92053(11)
H10_6 H 0.094207 0.930248 0.899296
C14_6 C 0.22157(13) 0.9593(2) 0.78121(11)
H13_6 H 0.239416 0.999755 0.759719
C21_6 C 0.17161(16) 0.8454(2) 0.84450(11)
H19_6 H 0.154279 0.803010 0.865621
C22_6 C 0.17623(16) 0.8070(2) 0.79713(11)
H20_6 H 0.162127 0.737690 0.786982
O1_4 O 0.73061(10) 0.29635(17) 0.59114(7)
O5_6 O 0.96321(10) 0.48304(16) 0.68659(8)
O9_6 O 0.96520(11) 0.13074(17) 0.67957(9)
N5_6 N 0.96348(11) 0.30634(17) 0.68507(8)
C3_6 C 0.77695(13) 0.29995(19) 0.63453(10)
C15_6 C 0.99147(13) 0.4030(2) 0.68428(9)
C16_6 C 0.99248(14) 0.2131(2) 0.68006(10)
C17_6 C 0.84563(13) 0.2981(2) 0.63258(10)
H14_6 H 0.851752 0.358293 0.611547
H15_6 H 0.852035 0.233489 0.614699
C19_6 C 0.89677(13) 0.3029(2) 0.68779(10)
H17_6 H 0.889196 0.365839 0.706384
H18_6 H 0.892229 0.240911 0.708286
Cu2_2 Cu 0.68584(2) 0.68017(3) 0.18862(2)
O5_7 O 0.46321(10) 0.01696(16) 0.18659(8)
O6_7 O 0.54567(10) 0.27173(15) 0.48264(8)
O7_4 O 0.27048(9) 0.19667(17) 0.17978(7)
O8_7 O 0.63858(10) 0.18397(16) 0.16658(9)
O9_7 O 0.46520(11) 0.36926(17) 0.17957(9)
O10_7 O 0.64094(14) 0.55589(19) 0.15747(9)
O11_7 O 0.54006(12) 0.13940(19) 0.43003(8)
O12_7 O 0.63212(9) 0.17864(15) 0.49241(8)
N1_7 N 0.69979(11) 0.63625(17) 0.26517(8)
N2_7 N 0.66175(11) 0.40770(17) 0.49475(8)
N3_7 N 0.55467(10) 0.09864(16) 0.18234(8)
N4_7 N 0.55433(11) 0.27979(17) 0.17556(9)
N5_7 N 0.46348(11) 0.19366(17) 0.18507(8)
N6_7 N 0.57199(12) 0.19530(18) 0.46748(9)
C1_7 C 0.69255(13) 0.5542(2) 0.36027(10)
C2_7 C 0.73054(14) 0.4410(2) 0.44209(11)
H1_7 H 0.770512 0.428628 0.436172
C3_7 C 0.27695(13) 0.20005(19) 0.13453(10)
C4_7 C 0.68407(13) 0.5067(2) 0.40872(10)
C5_7 C 0.71762(13) 0.3934(2) 0.48433(10)
H2_7 H 0.749701 0.348855 0.506823
C7_7 C 0.60078(14) 0.5236(2) 0.11425(11)
H3_7 H 0.636053 0.010413 0.201110
C9_7 C 0.58861(15) 0.3782(2) 0.17307(11)
H5_7 H 0.580884 0.429299 0.197997
H6_7 H 0.635914 0.364738 0.183903
C10_7 C 0.56517(17) 0.4241(3) 0.11711(12)
H7_7 H 0.517987 0.438510 0.106500
H8_7 H 0.572257 0.372508 0.092111
C11_7 C 0.61791(14) 0.4739(2) 0.46360(11)
H9_7 H 0.579176 0.487078 0.471352
C12_7 C 0.62666(14) 0.5241(2) 0.42053(11)
H10_7 H 0.594207 0.569752 0.399296
C14_7 C 0.72157(13) 0.5407(2) 0.28121(11)
H13_7 H 0.739416 0.500245 0.259719
C15_7 C 0.49147(13) 0.0970(2) 0.18428(9)
C16_7 C 0.49248(14) 0.2869(2) 0.18006(10)
C17_7 C 0.34563(13) 0.2019(2) 0.13258(10)
H14_7 H 0.351752 0.141707 0.111547
H15_7 H 0.352035 0.266511 0.114699
C18_7 C 0.71927(14) 0.4976(2) 0.32810(11)
H16_7 H 0.735916 0.429510 0.338220
C19_7 C 0.39677(13) 0.1971(2) 0.18779(10)
H17_7 H 0.389196 0.134161 0.206384
H18_7 H 0.392229 0.259089 0.208286
C20_7 C 0.58623(13) 0.1870(2) 0.17373(10)
C21_7 C 0.67161(16) 0.6546(2) 0.34450(11)
H19_7 H 0.654279 0.696990 0.365621
C22_7 C 0.67623(16) 0.6930(2) 0.29713(11)
H20_7 H 0.662127 0.762310 0.286982
Cu7_4 Cu 0.18584(2) 0.18017(3) 0.18862(2)
O15_3 O 0.64086(11) 0.81125(15) 0.17946(8)
O17_4 O 0.77048(9) 0.69667(17) 0.17978(7)
C6_7 C 0.60866(14) 0.8461(2) 0.13355(11)
C8_7 C 0.58861(13) 0.9987(2) 0.18599(10)
H4_7 H 0.575667 0.951452 0.209943
C13_7 C 0.57283(17) 0.9474(2) 0.13182(11)
H11_7 H 0.584133 0.996216 0.107633
H12_7 H 0.525513 0.933953 0.117384
O10_8 O 0.14094(14) 0.05589(19) 0.15747(9)
N1_8 N 0.19979(11) 0.13625(17) 0.26517(8)
C1_8 C 0.19255(13) 0.0542(2) 0.36027(10)
C4_8 C 0.18407(13) 0.0067(2) 0.40872(10)
C7_8 C 0.10078(14) 0.0236(2) 0.11425(11)
C12_8 C 0.12666(14) 0.0241(2) 0.42053(11)
H10_8 H 0.094207 0.069752 0.399296
C14_8 C 0.22157(13) 0.0407(2) 0.28121(11)
H13_8 H 0.239416 0.000245 0.259719
C21_8 C 0.17161(16) 0.1546(2) 0.34450(11)
H19_8 H 0.154279 0.196990 0.365621
C22_8 C 0.17623(16) 0.1930(2) 0.29713(11)
H20_8 H 0.162127 0.262310 0.286982
O15_4 O 0.14086(11) 0.31125(15) 0.17946(8)
O6_8 O 0.04567(10) 0.77173(15) 0.48264(8)
O8_8 O 0.13858(10) 0.68397(16) 0.16658(9)
O11_8 O 0.04006(12) 0.63940(19) 0.43003(8)
O12_8 O 0.13212(9) 0.67864(15) 0.49241(8)
N2_8 N 0.16175(11) 0.90770(17) 0.49475(8)
N3_8 N 0.05467(10) 0.59864(16) 0.18234(8)
N4_8 N 0.05433(11) 0.77979(17) 0.17556(9)
N6_8 N 0.07199(12) 0.69530(18) 0.46748(9)
C2_8 C 0.23054(14) 0.9410(2) 0.44209(11)
H1_8 H 0.270512 0.928628 0.436172
C5_8 C 0.21762(13) 0.8934(2) 0.48433(10)
H2_8 H 0.249701 0.848855 0.506823
C6_8 C 0.10866(14) 0.3461(2) 0.13355(11)
C8_8 C 0.08861(13) 0.4987(2) 0.18599(10)
H3_8 H 0.136053 0.510413 0.201110
H4_8 H 0.075667 0.451452 0.209943
C9_8 C 0.08861(15) 0.8782(2) 0.17307(11)
H5_8 H 0.080884 0.929299 0.197997
H6_8 H 0.135914 0.864738 0.183903
C10_8 C 0.06517(17) 0.9241(3) 0.11711(12)
H7_8 H 0.017987 0.938510 0.106500
H8_8 H 0.072257 0.872508 0.092111
C11_8 C 0.11791(14) 0.9739(2) 0.46360(11)
H9_8 H 0.079176 0.987078 0.471352
C13_8 C 0.07283(17) 0.4474(2) 0.13182(11)
H11_8 H 0.084133 0.496216 0.107633
H12_8 H 0.025513 0.433953 0.117384
C18_8 C 0.21927(14) 0.9976(2) 0.32810(11)
H16_8 H 0.235916 0.929510 0.338220
C20_8 C 0.08623(13) 0.6870(2) 0.17373(10)
O5_8 O 0.96321(10) 0.51696(16) 0.18659(8)
O9_8 O 0.96520(11) 0.86926(17) 0.17957(9)
N5_8 N 0.96348(11) 0.69366(17) 0.18507(8)
C3_8 C 0.77695(13) 0.70005(19) 0.13453(10)
C15_8 C 0.99147(13) 0.5970(2) 0.18428(9)
C16_8 C 0.99248(14) 0.7869(2) 0.18006(10)
C17_8 C 0.84563(13) 0.7019(2) 0.13258(10)
H14_8 H 0.851752 0.641707 0.111547
H15_8 H 0.852035 0.766511 0.114699
C19_8 C 0.89677(13) 0.6971(2) 0.18779(10)
H17_8 H 0.889196 0.634161 0.206384
H18_8 H 0.892229 0.759089 0.208286
loop_
_geom_bond_atom_site_label_1
_geom_bond_atom_site_label_2
_geom_bond_site_symmetry_1
_geom_bond_site_symmetry_2
O3 C6 1_555 1_555
O4 C6 1_555 1_555
C6 C13 1_555 1_555
H4 C8 1_555 1_555
C13 C8 1_555 1_555
H11 C13 1_555 1_555
H12 C13 1_555 1_555
Cu4 O4 1_555 1_555
Cu6 O3 1_555 1_555
Cu1 O6 1_555 1_555
Cu6 O10 1_555 1_555
O1 C3 1_555 1_555
O2 C7 1_555 1_555
O5 C15 1_555 1_555
O6 N6 1_555 1_555
O7 C3 1_555 1_555
O8 C20 1_555 1_555
O9 C16 1_555 1_555
O10 C7 1_555 1_555
O11 N6 1_555 1_555
O12 Cu1 1_555 1_555
N1 Cu6 1_555 1_555
N2 Cu1 1_555 1_555
N4 C9 1_555 1_555
N5 C15 1_555 1_555
N6 O12 1_555 1_555
C1 C4 1_555 1_555
C2 H1 1_555 1_555
C3 C17 1_555 1_555
C4 C2 1_555 1_555
C5 N2 1_555 1_555
H2 C5 1_555 1_555
C7 C10 1_555 1_555
C9 H5 1_555 1_555
H6 C9 1_555 1_555
C10 C9 1_555 1_555
H7 C10 1_555 1_555
H8 C10 1_555 1_555
C11 N2 1_555 1_555
H9 C11 1_555 1_555
C12 C4 1_555 1_555
H10 C12 1_555 1_555
C14 N1 1_555 1_555
H13 C14 1_555 1_555
C15 N3 1_555 1_555
C16 N4 1_555 1_555
C17 H14 1_555 1_555
H15 C17 1_555 1_555
C18 C1 1_555 1_555
H16 C18 1_555 1_555
C19 N5 1_555 1_555
H17 C19 1_555 1_555
H18 C19 1_555 1_555
C20 N3 1_555 1_555
C21 C1 1_555 1_555
H19 C21 1_555 1_555
C22 N1 1_555 1_555
H20 C22 1_555 1_555
Cu4 O2 1_555 1_555
Cu5 O1 1_555 1_555
Cu7 O7 1_555 1_555
O13 Cu1 1_555 1_555
O14 Cu1 1_555 1_555
O16 Cu1 1_555 1_555
O17 Cu6 1_555 1_555
N4 C20 1_555 1_555
N5 C16 1_555 1_555
C2 C5 1_555 1_555
C11 C12 1_555 1_555
C14 C18 1_555 1_555
C17 C19 1_555 1_555
C21 C22 1_555 1_555
O1_2 C3_2 1_555 1_555
O5_2 C15_2 1_555 1_555
O17 C3_2 1_555 1_555
O9_2 C16_2 1_555 1_555
N5_2 C15_2 1_555 1_555
C3_2 C17_2 1_555 1_555
C17_2 H14_2 1_555 1_555
H15_2 C17_2 1_555 1_555
C19_2 N5_2 1_555 1_555
H17_2 C19_2 1_555 1_555
H18_2 C19_2 1_555 1_555
Cu4 O1_2 1_555 1_555
N5_2 C16_2 1_555 1_555
C17_2 C19_2 1_555 1_555
Cu1_2 O6_2 1_555 1_555
O3_2 C6_2 1_555 1_555
O4_2 C6_2 1_555 1_555
O6_2 N6_2 1_555 1_555
O8_2 C20_2 1_555 1_555
O11_2 N6_2 1_555 1_555
O12_2 Cu1_2 1_555 1_555
N2_2 Cu1_2 1_555 1_555
N3_2 C8_2 1_555 1_555
N4_2 C9_2 1_555 1_555
N6_2 O12_2 1_555 1_555
C2_2 H1_2 1_555 1_555
C5_2 N2_2 1_555 1_555
H2_2 C5_2 1_555 1_555
C6_2 C13_2 1_555 1_555
C8_2 H3_2 1_555 1_555
H4_2 C8_2 1_555 1_555
C9_2 H5_2 1_555 1_555
H6_2 C9_2 1_555 1_555
C10_2 C9_2 1_555 1_555
H7_2 C10_2 1_555 1_555
H8_2 C10_2 1_555 1_555
C11_2 N2_2 1_555 1_555
H9_2 C11_2 1_555 1_555
C13_2 C8_2 1_555 1_555
H11_2 C13_2 1_555 1_555
H12_2 C13_2 1_555 1_555
H16_2 C18_2 1_555 1_555
C20_2 N3_2 1_555 1_555
Cu5 O4_2 1_555 1_555
Cu7 O3_2 1_555 1_555
O13_2 Cu1_2 1_555 1_555
O14_2 Cu1_2 1_555 1_555
O16_2 Cu1_2 1_555 1_555
N4_2 C20_2 1_555 1_555
C2_2 C5_2 1_555 1_555
Cu7 O10_2 1_555 1_555
O2_2 C7_2 1_555 1_555
O10_2 C7_2 1_555 1_555
N1_2 Cu7 1_555 1_555
C1_2 C4_2 1_555 1_555
C12_2 C4_2 1_555 1_555
H10_2 C12_2 1_555 1_555
C14_2 N1_2 1_555 1_555
H13_2 C14_2 1_555 1_555
C21_2 C1_2 1_555 1_555
H19_2 C21_2 1_555 1_555
C22_2 N1_2 1_555 1_555
H20_2 C22_2 1_555 1_555
Cu5 O2_2 1_555 1_555
C21_2 C22_2 1_555 1_555
Cu2 O10_3 1_555 1_555
O13_2 C3_3 1_555 1_555
O14 C7_3 1_555 1_555
O5_3 C15_3 1_555 1_555
O6_3 N6_3 1_555 1_555
O7_2 C3_3 1_555 1_555
O8_3 C20_3 1_555 1_555
O9_3 C16_3 1_555 1_555
O10_3 C7_3 1_555 1_555
O11_3 N6_3 1_555 1_555
N1_3 Cu2 1_555 1_555
N4_3 C9_3 1_555 1_555
N5_3 C15_3 1_555 1_555
N6_3 O12_3 1_555 1_555
C1_3 C4_3 1_555 1_555
C2_3 H1_3 1_555 1_555
C3_3 C17_3 1_555 1_555
C4_3 C2_3 1_555 1_555
C5_3 N2_3 1_555 1_555
C7_3 C10_3 1_555 1_555
C9_3 H5_3 1_555 1_555
H6_3 C9_3 1_555 1_555
C10_3 C9_3 1_555 1_555
H7_3 C10_3 1_555 1_555
H8_3 C10_3 1_555 1_555
C11_3 N2_3 1_555 1_555
H9_3 C11_3 1_555 1_555
C12_3 C4_3 1_555 1_555
H10_3 C12_3 1_555 1_555
C14_3 N1_3 1_555 1_555
H13_3 C14_3 1_555 1_555
C15_3 N3_3 1_555 1_555
C16_3 N4_3 1_555 1_555
C17_3 H14_3 1_555 1_555
H15_3 C17_3 1_555 1_555
C18_3 C1_3 1_555 1_555
H16_3 C18_3 1_555 1_555
C19_3 N5_3 1_555 1_555
H17_3 C19_3 1_555 1_555
H18_3 C19_3 1_555 1_555
C20_3 N3_3 1_555 1_555
C21_3 C1_3 1_555 1_555
H19_3 C21_3 1_555 1_555
C22_3 N1_3 1_555 1_555
H20_3 C22_3 1_555 1_555
Cu7_2 O7_2 1_555 1_555
O15 Cu2 1_555 1_555
O17_2 Cu2 1_555 1_555
N4_3 C20_3 1_555 1_555
N5_3 C16_3 1_555 1_555
C2_3 C5_3 1_555 1_555
C11_3 C12_3 1_555 1_555
C14_3 C18_3 1_555 1_555
C17_3 C19_3 1_555 1_555
C21_3 C22_3 1_555 1_555
O15 C6_3 1_555 1_555
O16 C6_3 1_555 1_555
C6_3 C13_3 1_555 1_555
H4_3 C8_3 1_555 1_555
C13_3 C8_3 1_555 1_555
H11_3 C13_3 1_555 1_555
H12_3 C13_3 1_555 1_555
O13 C3_4 1_555 1_555
O5_4 C15_4 1_555 1_555
O17_2 C3_4 1_555 1_555
O9_4 C16_4 1_555 1_555
N5_4 C15_4 1_555 1_555
C3_4 C17_4 1_555 1_555
C17_4 H14_4 1_555 1_555
H15_4 C17_4 1_555 1_555
C19_4 N5_4 1_555 1_555
H17_4 C19_4 1_555 1_555
H18_4 C19_4 1_555 1_555
N5_4 C16_4 1_555 1_555
C17_4 C19_4 1_555 1_555
Cu7_2 O10_4 1_555 1_555
O14_2 C7_4 1_555 1_555
O10_4 C7_4 1_555 1_555
N1_4 Cu7_2 1_555 1_555
C1_4 C4_4 1_555 1_555
C12_4 C4_4 1_555 1_555
H10_4 C12_4 1_555 1_555
C14_4 N1_4 1_555 1_555
H13_4 C14_4 1_555 1_555
C21_4 C1_4 1_555 1_555
H19_4 C21_4 1_555 1_555
C22_4 N1_4 1_555 1_555
H20_4 C22_4 1_555 1_555
O15_2 Cu7_2 1_555 1_555
C21_4 C22_4 1_555 1_555
O15_2 C6_4 1_555 1_555
O16_2 C6_4 1_555 1_555
O6_4 N6_4 1_555 1_555
O8_4 C20_4 1_555 1_555
O11_4 N6_4 1_555 1_555
N3_4 C8_4 1_555 1_555
N4_4 C9_4 1_555 1_555
N6_4 O12_4 1_555 1_555
C2_4 H1_4 1_555 1_555
C5_4 N2_4 1_555 1_555
C6_4 C13_4 1_555 1_555
C8_4 H3_4 1_555 1_555
H4_4 C8_4 1_555 1_555
C9_4 H5_4 1_555 1_555
H6_4 C9_4 1_555 1_555
C10_4 C9_4 1_555 1_555
H7_4 C10_4 1_555 1_555
H8_4 C10_4 1_555 1_555
C11_4 N2_4 1_555 1_555
H9_4 C11_4 1_555 1_555
C13_4 C8_4 1_555 1_555
H11_4 C13_4 1_555 1_555
H12_4 C13_4 1_555 1_555
H16_4 C18_4 1_555 1_555
C20_4 N3_4 1_555 1_555
N4_4 C20_4 1_555 1_555
C2_4 C5_4 1_555 1_555
O3_3 C6_5 1_555 1_555
O4_3 C6_5 1_555 1_555
C6_5 C13_5 1_555 1_555
H4_5 C8_5 1_555 1_555
C13_5 C8_5 1_555 1_555
H11_5 C13_5 1_555 1_555
H12_5 C13_5 1_555 1_555
Cu4_2 O4_3 1_555 1_555
Cu6_2 O3_3 1_555 1_555
O13_3 Cu1_3 1_555 1_555
O14_3 Cu1_3 1_555 1_555
O16_3 Cu1_3 1_555 1_555
Cu6_2 O10_5 1_555 1_555
O1_3 C3_5 1_555 1_555
O2_3 C7_5 1_555 1_555
O5_5 C15_5 1_555 1_555
O6_5 N6_5 1_555 1_555
O7_3 C3_5 1_555 1_555
O8_5 C20_5 1_555 1_555
O9_5 C16_5 1_555 1_555
O10_5 C7_5 1_555 1_555
O11_5 N6_5 1_555 1_555
N1_5 Cu6_2 1_555 1_555
N4_5 C9_5 1_555 1_555
N5_5 C15_5 1_555 1_555
N6_5 O12_5 1_555 1_555
C1_5 C4_5 1_555 1_555
C2_5 H1_5 1_555 1_555
C3_5 C17_5 1_555 1_555
C4_5 C2_5 1_555 1_555
C5_5 N2_5 1_555 1_555
C7_5 C10_5 1_555 1_555
C9_5 H5_5 1_555 1_555
H6_5 C9_5 1_555 1_555
C10_5 C9_5 1_555 1_555
H7_5 C10_5 1_555 1_555
H8_5 C10_5 1_555 1_555
C11_5 N2_5 1_555 1_555
H9_5 C11_5 1_555 1_555
C12_5 C4_5 1_555 1_555
H10_5 C12_5 1_555 1_555
C14_5 N1_5 1_555 1_555
H13_5 C14_5 1_555 1_555
C15_5 N3_5 1_555 1_555
C16_5 N4_5 1_555 1_555
C17_5 H14_5 1_555 1_555
H15_5 C17_5 1_555 1_555
C18_5 C1_5 1_555 1_555
H16_5 C18_5 1_555 1_555
C19_5 N5_5 1_555 1_555
H17_5 C19_5 1_555 1_555
H18_5 C19_5 1_555 1_555
C20_5 N3_5 1_555 1_555
C21_5 C1_5 1_555 1_555
H19_5 C21_5 1_555 1_555
C22_5 N1_5 1_555 1_555
H20_5 C22_5 1_555 1_555
Cu4_2 O2_3 1_555 1_555
Cu5_2 O1_3 1_555 1_555
Cu7_3 O7_3 1_555 1_555
O17_3 Cu6_2 1_555 1_555
N4_5 C20_5 1_555 1_555
N5_5 C16_5 1_555 1_555
C2_5 C5_5 1_555 1_555
C11_5 C12_5 1_555 1_555
C14_5 C18_5 1_555 1_555
C17_5 C19_5 1_555 1_555
C21_5 C22_5 1_555 1_555
O13_4 Cu1_4 1_555 1_555
O14_4 Cu1_4 1_555 1_555
O16_4 Cu1_4 1_555 1_555
O3_4 C6_6 1_555 1_555
O4_4 C6_6 1_555 1_555
O6_6 N6_6 1_555 1_555
O8_6 C20_6 1_555 1_555
O11_6 N6_6 1_555 1_555
N3_6 C8_6 1_555 1_555
N4_6 C9_6 1_555 1_555
N6_6 O12_6 1_555 1_555
C2_6 H1_6 1_555 1_555
C5_6 N2_6 1_555 1_555
C6_6 C13_6 1_555 1_555
C8_6 H3_6 1_555 1_555
H4_6 C8_6 1_555 1_555
C9_6 H5_6 1_555 1_555
H6_6 C9_6 1_555 1_555
C10_6 C9_6 1_555 1_555
H7_6 C10_6 1_555 1_555
H8_6 C10_6 1_555 1_555
C11_6 N2_6 1_555 1_555
H9_6 C11_6 1_555 1_555
C13_6 C8_6 1_555 1_555
H11_6 C13_6 1_555 1_555
H12_6 C13_6 1_555 1_555
H16_6 C18_6 1_555 1_555
C20_6 N3_6 1_555 1_555
Cu5_2 O4_4 1_555 1_555
Cu7_3 O3_4 1_555 1_555
N4_6 C20_6 1_555 1_555
C2_6 C5_6 1_555 1_555
Cu7_3 O10_6 1_555 1_555
O2_4 C7_6 1_555 1_555
O10_6 C7_6 1_555 1_555
N1_6 Cu7_3 1_555 1_555
C1_6 C4_6 1_555 1_555
C12_6 C4_6 1_555 1_555
H10_6 C12_6 1_555 1_555
C14_6 N1_6 1_555 1_555
H13_6 C14_6 1_555 1_555
C21_6 C1_6 1_555 1_555
H19_6 C21_6 1_555 1_555
C22_6 N1_6 1_555 1_555
H20_6 C22_6 1_555 1_555
Cu5_2 O2_4 1_555 1_555
C21_6 C22_6 1_555 1_555
O1_4 C3_6 1_555 1_555
O5_6 C15_6 1_555 1_555
O17_3 C3_6 1_555 1_555
O9_6 C16_6 1_555 1_555
N5_6 C15_6 1_555 1_555
C3_6 C17_6 1_555 1_555
C17_6 H14_6 1_555 1_555
H15_6 C17_6 1_555 1_555
C19_6 N5_6 1_555 1_555
H17_6 C19_6 1_555 1_555
H18_6 C19_6 1_555 1_555
Cu4_2 O1_4 1_555 1_555
N5_6 C16_6 1_555 1_555
C17_6 C19_6 1_555 1_555
Cu4_2 O6_7 1_555 1_555
Cu2_2 O10_7 1_555 1_555
O13_4 C3_7 1_555 1_555
O14_3 C7_7 1_555 1_555
O5_7 C15_7 1_555 1_555
O6_7 N6_7 1_555 1_555
O7_4 C3_7 1_555 1_555
O8_7 C20_7 1_555 1_555
O9_7 C16_7 1_555 1_555
O10_7 C7_7 1_555 1_555
O11_7 N6_7 1_555 1_555
O12_7 Cu4_2 1_555 1_555
N1_7 Cu2_2 1_555 1_555
N2_7 Cu4_2 1_555 1_555
N4_7 C9_7 1_555 1_555
N5_7 C15_7 1_555 1_555
N6_7 O12_7 1_555 1_555
C1_7 C4_7 1_555 1_555
C2_7 H1_7 1_555 1_555
C3_7 C17_7 1_555 1_555
C4_7 C2_7 1_555 1_555
C5_7 N2_7 1_555 1_555
H2_7 C5_7 1_555 1_555
C7_7 C10_7 1_555 1_555
C9_7 H5_7 1_555 1_555
H6_7 C9_7 1_555 1_555
C10_7 C9_7 1_555 1_555
H7_7 C10_7 1_555 1_555
H8_7 C10_7 1_555 1_555
C11_7 N2_7 1_555 1_555
H9_7 C11_7 1_555 1_555
C12_7 C4_7 1_555 1_555
H10_7 C12_7 1_555 1_555
C14_7 N1_7 1_555 1_555
H13_7 C14_7 1_555 1_555
C15_7 N3_7 1_555 1_555
C16_7 N4_7 1_555 1_555
C17_7 H14_7 1_555 1_555
H15_7 C17_7 1_555 1_555
C18_7 C1_7 1_555 1_555
H16_7 C18_7 1_555 1_555
C19_7 N5_7 1_555 1_555
H17_7 C19_7 1_555 1_555
H18_7 C19_7 1_555 1_555
C20_7 N3_7 1_555 1_555
C21_7 C1_7 1_555 1_555
H19_7 C21_7 1_555 1_555
C22_7 N1_7 1_555 1_555
H20_7 C22_7 1_555 1_555
Cu7_4 O7_4 1_555 1_555
O15_3 Cu2_2 1_555 1_555
O17_4 Cu2_2 1_555 1_555
N4_7 C20_7 1_555 1_555
N5_7 C16_7 1_555 1_555
C2_7 C5_7 1_555 1_555
C11_7 C12_7 1_555 1_555
C14_7 C18_7 1_555 1_555
C17_7 C19_7 1_555 1_555
C21_7 C22_7 1_555 1_555
O15_3 C6_7 1_555 1_555
O16_3 C6_7 1_555 1_555
C6_7 C13_7 1_555 1_555
H4_7 C8_7 1_555 1_555
C13_7 C8_7 1_555 1_555
H11_7 C13_7 1_555 1_555
H12_7 C13_7 1_555 1_555
Cu7_4 O10_8 1_555 1_555
O14_4 C7_8 1_555 1_555
O10_8 C7_8 1_555 1_555
N1_8 Cu7_4 1_555 1_555
C1_8 C4_8 1_555 1_555
C12_8 C4_8 1_555 1_555
H10_8 C12_8 1_555 1_555
C14_8 N1_8 1_555 1_555
H13_8 C14_8 1_555 1_555
C21_8 C1_8 1_555 1_555
H19_8 C21_8 1_555 1_555
C22_8 N1_8 1_555 1_555
H20_8 C22_8 1_555 1_555
O15_4 Cu7_4 1_555 1_555
C21_8 C22_8 1_555 1_555
Cu5_2 O6_8 1_555 1_555
O15_4 C6_8 1_555 1_555
O16_4 C6_8 1_555 1_555
O6_8 N6_8 1_555 1_555
O8_8 C20_8 1_555 1_555
O11_8 N6_8 1_555 1_555
O12_8 Cu5_2 1_555 1_555
N2_8 Cu5_2 1_555 1_555
N3_8 C8_8 1_555 1_555
N4_8 C9_8 1_555 1_555
N6_8 O12_8 1_555 1_555
C2_8 H1_8 1_555 1_555
C5_8 N2_8 1_555 1_555
H2_8 C5_8 1_555 1_555
C6_8 C13_8 1_555 1_555
C8_8 H3_8 1_555 1_555
H4_8 C8_8 1_555 1_555
C9_8 H5_8 1_555 1_555
H6_8 C9_8 1_555 1_555
C10_8 C9_8 1_555 1_555
H7_8 C10_8 1_555 1_555
H8_8 C10_8 1_555 1_555
C11_8 N2_8 1_555 1_555
H9_8 C11_8 1_555 1_555
C13_8 C8_8 1_555 1_555
H11_8 C13_8 1_555 1_555
H12_8 C13_8 1_555 1_555
H16_8 C18_8 1_555 1_555
C20_8 N3_8 1_555 1_555
N4_8 C20_8 1_555 1_555
C2_8 C5_8 1_555 1_555
O13_3 C3_8 1_555 1_555
O5_8 C15_8 1_555 1_555
O17_4 C3_8 1_555 1_555
O9_8 C16_8 1_555 1_555
N5_8 C15_8 1_555 1_555
C3_8 C17_8 1_555 1_555
C17_8 H14_8 1_555 1_555
H15_8 C17_8 1_555 1_555
C19_8 N5_8 1_555 1_555
H17_8 C19_8 1_555 1_555
H18_8 C19_8 1_555 1_555
N5_8 C16_8 1_555 1_555
C17_8 C19_8 1_555 1_555

#END
