
###############################################################################
#
# This file contains modified crystal structure data generated from the
# MOF subset of the Cambridge Structural Database (CSD) v542 
# hosted by the Cambridge Crystallographic Data Centre (CCDC).
#
# This work is licensed under the Creative Commons
# Attribution-NonCommercial-ShareAlike 4.0 International License.
# To view a copy of this license, visit
# http://creativecommons.org/licenses/by-nc-sa/4.0/
# or send a letter to
# Creative Commons, PO Box 1866, Mountain View, CA 94042, USA.
#
# CIF created using the CSD Python API on 22 February 2021
# The structure has been converted into the P1 space group
# The structure has a 3D framework
# The original CSD entry KEZLIN is in the monoclinic crystal system
# The framework has been calculated to contain at least 10.0% void space
# The void calculation uses a probe of radius 1.32A, grid spacing 0.4
#
###############################################################################

data_KEZLIN
_chemical_formula_moiety         '(C144 H128 Gd8 N8 O64)n'
_symmetry_cell_setting           triclinic
_symmetry_space_group_name_H-M   'P 1'
_symmetry_Int_Tables_number      1
_space_group_name_Hall           'P 1'
loop_
_symmetry_equiv_pos_site_id
_symmetry_equiv_pos_as_xyz
1 x,y,z
_cell_length_a                   24.4675(7)
_cell_length_b                   12.8615(5)
_cell_length_c                   14.7586(4)
_cell_angle_alpha                90
_cell_angle_beta                 96.977(3)
_cell_angle_gamma                90
_cell_volume                     4609.97
loop_
_atom_site_label
_atom_site_type_symbol
_atom_site_fract_x
_atom_site_fract_y
_atom_site_fract_z
Gd3 Gd 0.327696(12) 0.20262(3) 0.03385(2)
H3 H 0.0463 0.0044 0.8926
H7 H 0.1431 0.0057 0.9307
C15 C 0.2466(3) 0.0676(6) 0.9270(5)
O6 O 0.2970(2) 0.0512(4) 0.9436(4)
O7 O 0.22465(19) 0.1457(4) 0.9602(3)
Gd4 Gd 0.172304(12) 0.29738(3) 0.96615(2)
C2 C 0.0099(3) 0.7274(7) 0.8878(6)
H1 H 0.0005 0.6574 0.8857
C3 C 0.0579(3) 0.7590(7) 0.8558(6)
H2 H 0.0804 0.7104 0.8321
C4 C 0.0725(3) 0.8633(7) 0.8590(5)
C5 C 0.0373(3) 0.9341(7) 0.8909(6)
C7 C 0.1276(3) 0.8961(6) 0.8345(5)
C8 C 0.1497(3) 0.8487(6) 0.7624(5)
H5 H 0.1290 0.7997 0.7267
C9 C 0.2024(3) 0.8738(6) 0.7429(5)
C10 C 0.2335(3) 0.9426(6) 0.7978(5)
H6 H 0.2697 0.9553 0.7879
C11 C 0.2118(3) 0.9939(6) 0.8680(5)
C12 C 0.1583(3) 0.9705(6) 0.8847(5)
C14 C 0.2236(3) 0.8226(6) 0.6633(5)
O4 O 0.1936(2) 0.7584(5) 0.6198(3)
O5 O 0.2716(2) 0.8489(5) 0.6470(3)
Gd2 Gd 0.172304(12) 0.70262(3) 0.46615(2)
Gd5 Gd 0.327696(12) 0.79738(3) 0.53385(2)
Gd1 Gd 0.827696(12) 0.70262(3) 0.03385(2)
C16 C 0.8580(9) 0.7914(18) 0.2413(13)
C17 C 0.9481(10) 0.833(3) 0.3206(18)
H8 H 0.9651 0.8586 0.3784
H9 H 0.9584 0.8766 0.2726
H10 H 0.9600 0.7632 0.3118
C18 C 0.8643(11) 0.878(3) 0.3888(14)
H11 H 0.8251 0.8697 0.3778
H12 H 0.8730 0.9511 0.3926
H13 H 0.8782 0.8449 0.4451
O1 O 0.8988(2) 0.8299(5) 0.0018(4)
O2 O 0.8733(3) 0.5505(6) 0.1102(5)
O8 O 0.8738(3) 0.7644(7) 0.1769(5)
N1 N 0.8879(9) 0.8350(19) 0.3192(10)
O10 O 0.7716(2) 0.6511(5) 0.1470(3)
O13 O 0.77535(19) 0.8543(4) 0.0398(3)
H16 H 0.813914 0.782605 0.243505
C1 C 0.9755(3) 0.7985(6) 0.9229(5)
C6 C 0.9884(3) 0.9014(7) 0.9204(6)
H4 H 0.9640 0.9504 0.9388
C13 C 0.9255(3) 0.7643(7) 0.9644(5)
O3 O 0.9124(2) 0.6684(5) 0.9637(4)
O9 O 0.8064(2) 0.7584(5) 0.8802(3)
O11 O 0.7970(2) 0.5512(4) 0.9436(4)
O12 O 0.72465(19) 0.6457(4) 0.9602(3)
C1_2 C 0.0245(3) 0.7985(6) 0.5771(5)
C6_2 C 0.0116(3) 0.9014(7) 0.5796(6)
H4_2 H 0.0360 0.9504 0.5612
C13_2 C 0.0745(3) 0.7643(7) 0.5356(5)
C16_2 C 0.1420(9) 0.7914(18) 0.2587(13)
C17_2 C 0.0519(10) 0.833(3) 0.1794(18)
H8_2 H 0.0349 0.8586 0.1216
H9_2 H 0.0416 0.8766 0.2274
H10_2 H 0.0400 0.7632 0.1882
C18_2 C 0.1357(11) 0.878(3) 0.1112(14)
H11_2 H 0.1749 0.8697 0.1222
H12_2 H 0.1270 0.9511 0.1074
H13_2 H 0.1218 0.8449 0.0549
O1_2 O 0.1012(2) 0.8299(5) 0.4982(4)
O2_2 O 0.1267(3) 0.5505(6) 0.3898(5)
O3_2 O 0.0876(2) 0.6684(5) 0.5363(4)
O8_2 O 0.1262(3) 0.7644(7) 0.3231(5)
N1_2 N 0.1121(9) 0.8350(19) 0.1808(10)
O10_2 O 0.2284(2) 0.6511(5) 0.3530(3)
O11_2 O 0.2030(2) 0.5512(4) 0.5564(4)
O12_2 O 0.27535(19) 0.6457(4) 0.5398(3)
O13_2 O 0.22465(19) 0.8543(4) 0.4602(3)
H16_2 H 0.186086 0.782605 0.256495
H3_2 H 0.9537 0.0044 0.6074
H7_2 H 0.8569 0.0057 0.5693
C15_2 C 0.7534(3) 0.0676(6) 0.5730(5)
O6_2 O 0.7030(2) 0.0512(4) 0.5564(4)
O7_2 O 0.77535(19) 0.1457(4) 0.5398(3)
Gd3_2 Gd 0.672304(12) 0.20262(3) 0.46615(2)
Gd4_2 Gd 0.827696(12) 0.29738(3) 0.53385(2)
C2_2 C 0.9901(3) 0.7274(7) 0.6122(6)
H1_2 H 0.9995 0.6574 0.6143
C3_2 C 0.9421(3) 0.7590(7) 0.6442(6)
H2_2 H 0.9196 0.7104 0.6679
C4_2 C 0.9275(3) 0.8633(7) 0.6410(5)
C5_2 C 0.9627(3) 0.9341(7) 0.6091(6)
C7_2 C 0.8724(3) 0.8961(6) 0.6655(5)
C8_2 C 0.8503(3) 0.8487(6) 0.7376(5)
H5_2 H 0.8710 0.7997 0.7733
C9_2 C 0.7976(3) 0.8738(6) 0.7571(5)
C10_2 C 0.7665(3) 0.9426(6) 0.7022(5)
H6_2 H 0.7303 0.9553 0.7121
C11_2 C 0.7882(3) 0.9939(6) 0.6320(5)
C12_2 C 0.8417(3) 0.9705(6) 0.6153(5)
C14_2 C 0.7764(3) 0.8226(6) 0.8367(5)
O5_2 O 0.7284(2) 0.8489(5) 0.8530(3)
Gd5_2 Gd 0.672304(12) 0.79738(3) 0.96615(2)
C16_3 C 0.3580(9) 0.2914(18) 0.2413(13)
C17_3 C 0.4481(10) 0.333(3) 0.3206(18)
H8_3 H 0.4651 0.3586 0.3784
H9_3 H 0.4584 0.3766 0.2726
H10_3 H 0.4600 0.2632 0.3118
C18_3 C 0.3643(11) 0.378(3) 0.3888(14)
H11_3 H 0.3251 0.3697 0.3778
H12_3 H 0.3730 0.4511 0.3926
H13_3 H 0.3782 0.3449 0.4451
O1_3 O 0.3988(2) 0.3299(5) 0.0018(4)
O2_3 O 0.3733(3) 0.0505(6) 0.1102(5)
O8_3 O 0.3738(3) 0.2644(7) 0.1769(5)
N1_3 N 0.3879(9) 0.3350(19) 0.3192(10)
O10_3 O 0.2716(2) 0.1511(5) 0.1470(3)
O13_3 O 0.27535(19) 0.3543(4) 0.0398(3)
H16_3 H 0.313914 0.282605 0.243505
C1_3 C 0.4755(3) 0.2985(6) 0.9229(5)
C2_3 C 0.5099(3) 0.2274(7) 0.8878(6)
H1_3 H 0.5005 0.1574 0.8857
C3_3 C 0.5579(3) 0.2590(7) 0.8558(6)
H2_3 H 0.5804 0.2104 0.8321
C4_3 C 0.5725(3) 0.3633(7) 0.8590(5)
C5_3 C 0.5373(3) 0.4341(7) 0.8909(6)
H3_3 H 0.5463 0.5044 0.8926
C6_3 C 0.4884(3) 0.4014(7) 0.9204(6)
H4_3 H 0.4640 0.4504 0.9388
C7_3 C 0.6276(3) 0.3961(6) 0.8345(5)
C8_3 C 0.6497(3) 0.3487(6) 0.7624(5)
H5_3 H 0.6290 0.2997 0.7267
C9_3 C 0.7024(3) 0.3738(6) 0.7429(5)
C10_3 C 0.7335(3) 0.4426(6) 0.7978(5)
H6_3 H 0.7697 0.4553 0.7879
C11_3 C 0.7118(3) 0.4939(6) 0.8680(5)
C12_3 C 0.6583(3) 0.4705(6) 0.8847(5)
H7_3 H 0.6431 0.5057 0.9307
C13_3 C 0.4255(3) 0.2643(7) 0.9644(5)
C14_3 C 0.7236(3) 0.3226(6) 0.6633(5)
C15_3 C 0.7466(3) 0.5676(6) 0.9270(5)
O3_3 O 0.4124(2) 0.1684(5) 0.9637(4)
O4_2 O 0.6936(2) 0.2584(5) 0.6198(3)
O5_3 O 0.7716(2) 0.3489(5) 0.6470(3)
O9_2 O 0.3064(2) 0.2584(5) 0.8802(3)
C1_4 C 0.5245(3) 0.2985(6) 0.5771(5)
C2_4 C 0.4901(3) 0.2274(7) 0.6122(6)
H1_4 H 0.4995 0.1574 0.6143
C3_4 C 0.4421(3) 0.2590(7) 0.6442(6)
H2_4 H 0.4196 0.2104 0.6679
C4_4 C 0.4275(3) 0.3633(7) 0.6410(5)
C5_4 C 0.4627(3) 0.4341(7) 0.6091(6)
H3_4 H 0.4537 0.5044 0.6074
C6_4 C 0.5116(3) 0.4014(7) 0.5796(6)
H4_4 H 0.5360 0.4504 0.5612
C7_4 C 0.3724(3) 0.3961(6) 0.6655(5)
C8_4 C 0.3503(3) 0.3487(6) 0.7376(5)
H5_4 H 0.3710 0.2997 0.7733
C9_4 C 0.2976(3) 0.3738(6) 0.7571(5)
C10_4 C 0.2665(3) 0.4426(6) 0.7022(5)
H6_4 H 0.2303 0.4553 0.7121
C11_4 C 0.2882(3) 0.4939(6) 0.6320(5)
C12_4 C 0.3417(3) 0.4705(6) 0.6153(5)
H7_4 H 0.3569 0.5057 0.5693
C13_4 C 0.5745(3) 0.2643(7) 0.5356(5)
C14_4 C 0.2764(3) 0.3226(6) 0.8367(5)
C15_4 C 0.2534(3) 0.5676(6) 0.5730(5)
C16_4 C 0.6420(9) 0.2914(18) 0.2587(13)
C17_4 C 0.5519(10) 0.333(3) 0.1794(18)
H8_4 H 0.5349 0.3586 0.1216
H9_4 H 0.5416 0.3766 0.2274
H10_4 H 0.5400 0.2632 0.1882
C18_4 C 0.6357(11) 0.378(3) 0.1112(14)
H11_4 H 0.6749 0.3697 0.1222
H12_4 H 0.6270 0.4511 0.1074
H13_4 H 0.6218 0.3449 0.0549
O1_4 O 0.6012(2) 0.3299(5) 0.4982(4)
O2_4 O 0.6267(3) 0.0505(6) 0.3898(5)
O3_4 O 0.5876(2) 0.1684(5) 0.5363(4)
O5_4 O 0.2284(2) 0.3489(5) 0.8530(3)
O8_4 O 0.6262(3) 0.2644(7) 0.3231(5)
N1_4 N 0.6121(9) 0.3350(19) 0.1808(10)
O10_4 O 0.7284(2) 0.1511(5) 0.3530(3)
O13_4 O 0.72465(19) 0.3543(4) 0.4602(3)
H16_4 H 0.686086 0.282605 0.256495
C1_5 C 0.0245(3) 0.2015(6) 0.0771(5)
C6_5 C 0.0116(3) 0.0986(7) 0.0796(6)
H4_5 H 0.0360 0.0496 0.0612
C13_5 C 0.0745(3) 0.2357(7) 0.0356(5)
O3_5 O 0.0876(2) 0.3316(5) 0.0363(4)
O9_3 O 0.1936(2) 0.2416(5) 0.1198(3)
O11_3 O 0.2030(2) 0.4488(4) 0.0564(4)
C16_5 C 0.1420(9) 0.2086(18) 0.7587(13)
C17_5 C 0.0519(10) 0.167(3) 0.6794(18)
H8_5 H 0.0349 0.1414 0.6216
H9_5 H 0.0416 0.1234 0.7274
H10_5 H 0.0400 0.2368 0.6882
C18_5 C 0.1357(11) 0.122(3) 0.6112(14)
H11_5 H 0.1749 0.1303 0.6222
H12_5 H 0.1270 0.0489 0.6074
H13_5 H 0.1218 0.1551 0.5549
O1_5 O 0.1012(2) 0.1701(5) 0.9982(4)
O2_5 O 0.1267(3) 0.4495(6) 0.8898(5)
O8_5 O 0.1262(3) 0.2356(7) 0.8231(5)
N1_5 N 0.1121(9) 0.1650(19) 0.6808(10)
H16_5 H 0.186086 0.217395 0.756495
C2_5 C 0.9901(3) 0.2726(7) 0.1122(6)
H1_5 H 0.9995 0.3426 0.1143
C3_5 C 0.9421(3) 0.2410(7) 0.1442(6)
H2_5 H 0.9196 0.2896 0.1679
C4_5 C 0.9275(3) 0.1367(7) 0.1410(5)
C5_5 C 0.9627(3) 0.0659(7) 0.1091(6)
C7_5 C 0.8724(3) 0.1039(6) 0.1655(5)
C8_5 C 0.8503(3) 0.1513(6) 0.2376(5)
H5_5 H 0.8710 0.2003 0.2733
C9_5 C 0.7976(3) 0.1262(6) 0.2571(5)
C10_5 C 0.7665(3) 0.0574(6) 0.2022(5)
H6_5 H 0.7303 0.0447 0.2121
C11_5 C 0.7882(3) 0.0061(6) 0.1320(5)
C12_5 C 0.8417(3) 0.0295(6) 0.1153(5)
C14_5 C 0.7764(3) 0.1774(6) 0.3367(5)
O4_3 O 0.8064(2) 0.2416(5) 0.3802(3)
H3_5 H 0.9537 0.9956 0.1074
H7_5 H 0.8569 0.9943 0.0693
C15_5 C 0.7534(3) 0.9324(6) 0.0730(5)
O6_3 O 0.7030(2) 0.9488(4) 0.0564(4)
C2_6 C 0.0099(3) 0.2726(7) 0.3878(6)
H1_6 H 0.0005 0.3426 0.3857
C3_6 C 0.0579(3) 0.2410(7) 0.3558(6)
H2_6 H 0.0804 0.2896 0.3321
C4_6 C 0.0725(3) 0.1367(7) 0.3590(5)
C5_6 C 0.0373(3) 0.0659(7) 0.3909(6)
C7_6 C 0.1276(3) 0.1039(6) 0.3345(5)
C8_6 C 0.1497(3) 0.1513(6) 0.2624(5)
H5_6 H 0.1290 0.2003 0.2267
C9_6 C 0.2024(3) 0.1262(6) 0.2429(5)
C10_6 C 0.2335(3) 0.0574(6) 0.2978(5)
H6_6 H 0.2697 0.0447 0.2879
C11_6 C 0.2118(3) 0.0061(6) 0.3680(5)
C12_6 C 0.1583(3) 0.0295(6) 0.3847(5)
C14_6 C 0.2236(3) 0.1774(6) 0.1633(5)
H3_6 H 0.0463 0.9956 0.3926
H7_6 H 0.1431 0.9943 0.4307
C15_6 C 0.2466(3) 0.9324(6) 0.4270(5)
O6_4 O 0.2970(2) 0.9488(4) 0.4436(4)
C1_6 C 0.9755(3) 0.2015(6) 0.4229(5)
C6_6 C 0.9884(3) 0.0986(7) 0.4204(6)
H4_6 H 0.9640 0.0496 0.4388
C13_6 C 0.9255(3) 0.2357(7) 0.4644(5)
C16_6 C 0.8580(9) 0.2086(18) 0.7413(13)
C17_6 C 0.9481(10) 0.167(3) 0.8206(18)
H8_6 H 0.9651 0.1414 0.8784
H9_6 H 0.9584 0.1234 0.7726
H10_6 H 0.9600 0.2368 0.8118
C18_6 C 0.8643(11) 0.122(3) 0.8888(14)
H11_6 H 0.8251 0.1303 0.8778
H12_6 H 0.8730 0.0489 0.8926
H13_6 H 0.8782 0.1551 0.9451
O1_6 O 0.8988(2) 0.1701(5) 0.5018(4)
O2_6 O 0.8733(3) 0.4495(6) 0.6102(5)
O3_6 O 0.9124(2) 0.3316(5) 0.4637(4)
O8_6 O 0.8738(3) 0.2356(7) 0.6769(5)
N1_6 N 0.8879(9) 0.1650(19) 0.8192(10)
O11_4 O 0.7970(2) 0.4488(4) 0.4436(4)
H16_6 H 0.813914 0.217395 0.743505
C1_7 C 0.5245(3) 0.7015(6) 0.0771(5)
C2_7 C 0.4901(3) 0.7726(7) 0.1122(6)
H1_7 H 0.4995 0.8426 0.1143
C3_7 C 0.4421(3) 0.7410(7) 0.1442(6)
H2_7 H 0.4196 0.7896 0.1679
C4_7 C 0.4275(3) 0.6367(7) 0.1410(5)
C5_7 C 0.4627(3) 0.5659(7) 0.1091(6)
H3_7 H 0.4537 0.4956 0.1074
C6_7 C 0.5116(3) 0.5986(7) 0.0796(6)
H4_7 H 0.5360 0.5496 0.0612
C7_7 C 0.3724(3) 0.6039(6) 0.1655(5)
C8_7 C 0.3503(3) 0.6513(6) 0.2376(5)
H5_7 H 0.3710 0.7003 0.2733
C9_7 C 0.2976(3) 0.6262(6) 0.2571(5)
C10_7 C 0.2665(3) 0.5574(6) 0.2022(5)
H6_7 H 0.2303 0.5447 0.2121
C11_7 C 0.2882(3) 0.5061(6) 0.1320(5)
C12_7 C 0.3417(3) 0.5295(6) 0.1153(5)
H7_7 H 0.3569 0.4943 0.0693
C13_7 C 0.5745(3) 0.7357(7) 0.0356(5)
C14_7 C 0.2764(3) 0.6774(6) 0.3367(5)
C15_7 C 0.2534(3) 0.4324(6) 0.0730(5)
O3_7 O 0.5876(2) 0.8316(5) 0.0363(4)
O4_4 O 0.3064(2) 0.7416(5) 0.3802(3)
O9_4 O 0.6936(2) 0.7416(5) 0.1198(3)
C16_7 C 0.6420(9) 0.7086(18) 0.7587(13)
C17_7 C 0.5519(10) 0.667(3) 0.6794(18)
H8_7 H 0.5349 0.6414 0.6216
H9_7 H 0.5416 0.6234 0.7274
H10_7 H 0.5400 0.7368 0.6882
C18_7 C 0.6357(11) 0.622(3) 0.6112(14)
H11_7 H 0.6749 0.6303 0.6222
H12_7 H 0.6270 0.5489 0.6074
H13_7 H 0.6218 0.6551 0.5549
O1_7 O 0.6012(2) 0.6701(5) 0.9982(4)
O2_7 O 0.6267(3) 0.9495(6) 0.8898(5)
O8_7 O 0.6262(3) 0.7356(7) 0.8231(5)
N1_7 N 0.6121(9) 0.6650(19) 0.6808(10)
H16_7 H 0.686086 0.717395 0.756495
C1_8 C 0.4755(3) 0.7015(6) 0.4229(5)
C2_8 C 0.5099(3) 0.7726(7) 0.3878(6)
H1_8 H 0.5005 0.8426 0.3857
C3_8 C 0.5579(3) 0.7410(7) 0.3558(6)
H2_8 H 0.5804 0.7896 0.3321
C4_8 C 0.5725(3) 0.6367(7) 0.3590(5)
C5_8 C 0.5373(3) 0.5659(7) 0.3909(6)
H3_8 H 0.5463 0.4956 0.3926
C6_8 C 0.4884(3) 0.5986(7) 0.4204(6)
H4_8 H 0.4640 0.5496 0.4388
C7_8 C 0.6276(3) 0.6039(6) 0.3345(5)
C8_8 C 0.6497(3) 0.6513(6) 0.2624(5)
H5_8 H 0.6290 0.7003 0.2267
C9_8 C 0.7024(3) 0.6262(6) 0.2429(5)
C10_8 C 0.7335(3) 0.5574(6) 0.2978(5)
H6_8 H 0.7697 0.5447 0.2879
C11_8 C 0.7118(3) 0.5061(6) 0.3680(5)
C12_8 C 0.6583(3) 0.5295(6) 0.3847(5)
H7_8 H 0.6431 0.4943 0.4307
C13_8 C 0.4255(3) 0.7357(7) 0.4644(5)
C14_8 C 0.7236(3) 0.6774(6) 0.1633(5)
C15_8 C 0.7466(3) 0.4324(6) 0.4270(5)
C16_8 C 0.3580(9) 0.7086(18) 0.7413(13)
C17_8 C 0.4481(10) 0.667(3) 0.8206(18)
H8_8 H 0.4651 0.6414 0.8784
H9_8 H 0.4584 0.6234 0.7726
H10_8 H 0.4600 0.7368 0.8118
C18_8 C 0.3643(11) 0.622(3) 0.8888(14)
H11_8 H 0.3251 0.6303 0.8778
H12_8 H 0.3730 0.5489 0.8926
H13_8 H 0.3782 0.6551 0.9451
O1_8 O 0.3988(2) 0.6701(5) 0.5018(4)
O2_8 O 0.3733(3) 0.9495(6) 0.6102(5)
O3_8 O 0.4124(2) 0.8316(5) 0.4637(4)
O8_8 O 0.3738(3) 0.7356(7) 0.6769(5)
N1_8 N 0.3879(9) 0.6650(19) 0.8192(10)
H16_8 H 0.313914 0.717395 0.743505
loop_
_geom_bond_atom_site_label_1
_geom_bond_atom_site_label_2
_geom_bond_site_symmetry_1
_geom_bond_site_symmetry_2
O6 C15 1_555 1_555
O7 C15 1_555 1_555
Gd4 O7 1_555 1_555
C2 H1 1_555 1_555
C3 C2 1_555 1_555
H2 C3 1_555 1_555
C4 C3 1_555 1_555
C5 C4 1_555 1_555
C7 C4 1_555 1_555
C8 C7 1_555 1_555
H5 C8 1_555 1_555
C9 C8 1_555 1_555
C10 C9 1_555 1_555
H6 C10 1_555 1_555
C11 C10 1_555 1_555
C12 C7 1_555 1_555
C14 C9 1_555 1_555
O4 C14 1_555 1_555
O5 C14 1_555 1_555
Gd2 O4 1_555 1_555
Gd5 O5 1_555 1_555
C11 C12 1_555 1_555
Gd1 O1 1_555 1_555
C16 O8 1_555 1_555
C17 H8 1_555 1_555
H9 C17 1_555 1_555
H10 C17 1_555 1_555
C18 H11 1_555 1_555
H12 C18 1_555 1_555
H13 C18 1_555 1_555
O2 Gd1 1_555 1_555
O8 Gd1 1_555 1_555
N1 C16 1_555 1_555
O10 Gd1 1_555 1_555
O13 Gd1 1_555 1_555
C17 N1 1_555 1_555
C18 N1 1_555 1_555
C16 H16 1_555 1_555
C6 C1 1_555 1_555
H4 C6 1_555 1_555
C13 C1 1_555 1_555
C13 O3 1_555 1_555
Gd2 O1_2 1_555 1_555
C6_2 C1_2 1_555 1_555
H4_2 C6_2 1_555 1_555
C13_2 C1_2 1_555 1_555
C16_2 O8_2 1_555 1_555
C17_2 H8_2 1_555 1_555
H9_2 C17_2 1_555 1_555
H10_2 C17_2 1_555 1_555
C18_2 H11_2 1_555 1_555
H12_2 C18_2 1_555 1_555
H13_2 C18_2 1_555 1_555
O1_2 C13_2 1_555 1_555
O2_2 Gd2 1_555 1_555
O3_2 Gd2 1_555 1_555
O8_2 Gd2 1_555 1_555
N1_2 C16_2 1_555 1_555
O10_2 Gd2 1_555 1_555
O11_2 Gd2 1_555 1_555
O12_2 Gd2 1_555 1_555
O13_2 Gd2 1_555 1_555
C13_2 O3_2 1_555 1_555
C17_2 N1_2 1_555 1_555
C18_2 N1_2 1_555 1_555
C16_2 H16_2 1_555 1_555
O6_2 C15_2 1_555 1_555
O7_2 C15_2 1_555 1_555
Gd3_2 O6_2 1_555 1_555
Gd4_2 O7_2 1_555 1_555
O7_2 Gd3_2 1_555 1_555
C2_2 H1_2 1_555 1_555
C3_2 C2_2 1_555 1_555
H2_2 C3_2 1_555 1_555
C4_2 C3_2 1_555 1_555
C5_2 C4_2 1_555 1_555
C7_2 C4_2 1_555 1_555
C8_2 C7_2 1_555 1_555
H5_2 C8_2 1_555 1_555
C9_2 C8_2 1_555 1_555
C10_2 C9_2 1_555 1_555
H6_2 C10_2 1_555 1_555
C11_2 C10_2 1_555 1_555
C12_2 C7_2 1_555 1_555
C14_2 C9_2 1_555 1_555
O9 C14_2 1_555 1_555
O5_2 C14_2 1_555 1_555
Gd5_2 O5_2 1_555 1_555
C11_2 C12_2 1_555 1_555
Gd3 O1_3 1_555 1_555
C16_3 O8_3 1_555 1_555
C17_3 H8_3 1_555 1_555
H9_3 C17_3 1_555 1_555
H10_3 C17_3 1_555 1_555
C18_3 H11_3 1_555 1_555
H12_3 C18_3 1_555 1_555
H13_3 C18_3 1_555 1_555
O2_3 Gd3 1_555 1_555
O8_3 Gd3 1_555 1_555
N1_3 C16_3 1_555 1_555
O10_3 Gd3 1_555 1_555
O13_3 Gd3 1_555 1_555
C17_3 N1_3 1_555 1_555
C18_3 N1_3 1_555 1_555
C16_3 H16_3 1_555 1_555
C1_3 C2_3 1_555 1_555
C2_3 H1_3 1_555 1_555
C3_3 C2_3 1_555 1_555
H2_3 C3_3 1_555 1_555
C4_3 C3_3 1_555 1_555
C5_3 C4_3 1_555 1_555
H3_3 C5_3 1_555 1_555
C6_3 C1_3 1_555 1_555
H4_3 C6_3 1_555 1_555
C7_3 C4_3 1_555 1_555
C8_3 C7_3 1_555 1_555
H5_3 C8_3 1_555 1_555
C9_3 C8_3 1_555 1_555
C10_3 C9_3 1_555 1_555
H6_3 C10_3 1_555 1_555
C11_3 C10_3 1_555 1_555
C12_3 C7_3 1_555 1_555
H7_3 C12_3 1_555 1_555
C13_3 C1_3 1_555 1_555
C14_3 C9_3 1_555 1_555
C15_3 C11_3 1_555 1_555
O4_2 C14_3 1_555 1_555
O5_3 C14_3 1_555 1_555
O11 C15_3 1_555 1_555
O12 C15_3 1_555 1_555
Gd3_2 O4_2 1_555 1_555
Gd5_2 O12 1_555 1_555
Gd4_2 O5_3 1_555 1_555
C5_3 C6_3 1_555 1_555
C11_3 C12_3 1_555 1_555
C13_3 O3_3 1_555 1_555
Gd3_2 O1_4 1_555 1_555
C1_4 C2_4 1_555 1_555
C2_4 H1_4 1_555 1_555
C3_4 C2_4 1_555 1_555
H2_4 C3_4 1_555 1_555
C4_4 C3_4 1_555 1_555
C5_4 C4_4 1_555 1_555
H3_4 C5_4 1_555 1_555
C6_4 C1_4 1_555 1_555
H4_4 C6_4 1_555 1_555
C7_4 C4_4 1_555 1_555
C8_4 C7_4 1_555 1_555
H5_4 C8_4 1_555 1_555
C9_4 C8_4 1_555 1_555
C10_4 C9_4 1_555 1_555
H6_4 C10_4 1_555 1_555
C11_4 C10_4 1_555 1_555
C12_4 C7_4 1_555 1_555
H7_4 C12_4 1_555 1_555
C13_4 C1_4 1_555 1_555
C14_4 C9_4 1_555 1_555
C15_4 C11_4 1_555 1_555
C16_4 O8_4 1_555 1_555
C17_4 H8_4 1_555 1_555
H9_4 C17_4 1_555 1_555
H10_4 C17_4 1_555 1_555
C18_4 H11_4 1_555 1_555
H12_4 C18_4 1_555 1_555
H13_4 C18_4 1_555 1_555
O1_4 C13_4 1_555 1_555
O2_4 Gd3_2 1_555 1_555
O3_4 Gd3_2 1_555 1_555
O9_2 C14_4 1_555 1_555
O5_4 C14_4 1_555 1_555
O11_2 C15_4 1_555 1_555
O12_2 C15_4 1_555 1_555
O8_4 Gd3_2 1_555 1_555
N1_4 C16_4 1_555 1_555
Gd5 O12_2 1_555 1_555
Gd4 O5_4 1_555 1_555
O10_4 Gd3_2 1_555 1_555
O13_4 Gd3_2 1_555 1_555
C5_4 C6_4 1_555 1_555
C11_4 C12_4 1_555 1_555
C13_4 O3_4 1_555 1_555
C17_4 N1_4 1_555 1_555
C18_4 N1_4 1_555 1_555
C16_4 H16_4 1_555 1_555
C6_5 C1_5 1_555 1_555
H4_5 C6_5 1_555 1_555
C13_5 C1_5 1_555 1_555
C13_5 O3_5 1_555 1_555
Gd4 O1_5 1_555 1_555
C16_5 O8_5 1_555 1_555
C17_5 H8_5 1_555 1_555
H9_5 C17_5 1_555 1_555
H10_5 C17_5 1_555 1_555
C18_5 H11_5 1_555 1_555
H12_5 C18_5 1_555 1_555
H13_5 C18_5 1_555 1_555
O2_5 Gd4 1_555 1_555
O8_5 Gd4 1_555 1_555
N1_5 C16_5 1_555 1_555
C17_5 N1_5 1_555 1_555
C18_5 N1_5 1_555 1_555
C16_5 H16_5 1_555 1_555
C2_5 H1_5 1_555 1_555
C3_5 C2_5 1_555 1_555
H2_5 C3_5 1_555 1_555
C4_5 C3_5 1_555 1_555
C5_5 C4_5 1_555 1_555
C7_5 C4_5 1_555 1_555
C8_5 C7_5 1_555 1_555
H5_5 C8_5 1_555 1_555
C9_5 C8_5 1_555 1_555
C10_5 C9_5 1_555 1_555
H6_5 C10_5 1_555 1_555
C11_5 C10_5 1_555 1_555
C12_5 C7_5 1_555 1_555
C14_5 C9_5 1_555 1_555
O4_3 C14_5 1_555 1_555
O10_4 C14_5 1_555 1_555
Gd4_2 O4_3 1_555 1_555
C11_5 C12_5 1_555 1_555
O6_3 C15_5 1_555 1_555
O13 C15_5 1_555 1_555
C2_6 H1_6 1_555 1_555
C3_6 C2_6 1_555 1_555
H2_6 C3_6 1_555 1_555
C4_6 C3_6 1_555 1_555
C5_6 C4_6 1_555 1_555
C7_6 C4_6 1_555 1_555
C8_6 C7_6 1_555 1_555
H5_6 C8_6 1_555 1_555
C9_6 C8_6 1_555 1_555
C10_6 C9_6 1_555 1_555
H6_6 C10_6 1_555 1_555
C11_6 C10_6 1_555 1_555
C12_6 C7_6 1_555 1_555
C14_6 C9_6 1_555 1_555
O9_3 C14_6 1_555 1_555
O10_3 C14_6 1_555 1_555
C11_6 C12_6 1_555 1_555
O6_4 C15_6 1_555 1_555
O13_2 C15_6 1_555 1_555
Gd5 O6_4 1_555 1_555
O13_2 Gd5 1_555 1_555
Gd4_2 O1_6 1_555 1_555
C6_6 C1_6 1_555 1_555
H4_6 C6_6 1_555 1_555
C13_6 C1_6 1_555 1_555
C16_6 O8_6 1_555 1_555
C17_6 H8_6 1_555 1_555
H9_6 C17_6 1_555 1_555
H10_6 C17_6 1_555 1_555
C18_6 H11_6 1_555 1_555
H12_6 C18_6 1_555 1_555
H13_6 C18_6 1_555 1_555
O1_6 C13_6 1_555 1_555
O2_6 Gd4_2 1_555 1_555
O3_6 Gd4_2 1_555 1_555
O8_6 Gd4_2 1_555 1_555
N1_6 C16_6 1_555 1_555
O11_4 Gd4_2 1_555 1_555
O13_4 Gd4_2 1_555 1_555
C13_6 O3_6 1_555 1_555
C17_6 N1_6 1_555 1_555
C18_6 N1_6 1_555 1_555
C16_6 H16_6 1_555 1_555
C1_7 C2_7 1_555 1_555
C2_7 H1_7 1_555 1_555
C3_7 C2_7 1_555 1_555
H2_7 C3_7 1_555 1_555
C4_7 C3_7 1_555 1_555
C5_7 C4_7 1_555 1_555
H3_7 C5_7 1_555 1_555
C6_7 C1_7 1_555 1_555
H4_7 C6_7 1_555 1_555
C7_7 C4_7 1_555 1_555
C8_7 C7_7 1_555 1_555
H5_7 C8_7 1_555 1_555
C9_7 C8_7 1_555 1_555
C10_7 C9_7 1_555 1_555
H6_7 C10_7 1_555 1_555
C11_7 C10_7 1_555 1_555
C12_7 C7_7 1_555 1_555
H7_7 C12_7 1_555 1_555
C13_7 C1_7 1_555 1_555
C14_7 C9_7 1_555 1_555
C15_7 C11_7 1_555 1_555
O4_4 C14_7 1_555 1_555
O10_2 C14_7 1_555 1_555
O11_3 C15_7 1_555 1_555
O13_3 C15_7 1_555 1_555
Gd5 O4_4 1_555 1_555
C5_7 C6_7 1_555 1_555
C11_7 C12_7 1_555 1_555
C13_7 O3_7 1_555 1_555
Gd5_2 O1_7 1_555 1_555
C16_7 O8_7 1_555 1_555
C17_7 H8_7 1_555 1_555
H9_7 C17_7 1_555 1_555
H10_7 C17_7 1_555 1_555
C18_7 H11_7 1_555 1_555
H12_7 C18_7 1_555 1_555
H13_7 C18_7 1_555 1_555
O2_7 Gd5_2 1_555 1_555
O8_7 Gd5_2 1_555 1_555
N1_7 C16_7 1_555 1_555
C17_7 N1_7 1_555 1_555
C18_7 N1_7 1_555 1_555
C16_7 H16_7 1_555 1_555
Gd5 O1_8 1_555 1_555
C1_8 C2_8 1_555 1_555
C2_8 H1_8 1_555 1_555
C3_8 C2_8 1_555 1_555
H2_8 C3_8 1_555 1_555
C4_8 C3_8 1_555 1_555
C5_8 C4_8 1_555 1_555
H3_8 C5_8 1_555 1_555
C6_8 C1_8 1_555 1_555
H4_8 C6_8 1_555 1_555
C7_8 C4_8 1_555 1_555
C8_8 C7_8 1_555 1_555
H5_8 C8_8 1_555 1_555
C9_8 C8_8 1_555 1_555
C10_8 C9_8 1_555 1_555
H6_8 C10_8 1_555 1_555
C11_8 C10_8 1_555 1_555
C12_8 C7_8 1_555 1_555
H7_8 C12_8 1_555 1_555
C13_8 C1_8 1_555 1_555
C14_8 C9_8 1_555 1_555
C15_8 C11_8 1_555 1_555
C16_8 O8_8 1_555 1_555
C17_8 H8_8 1_555 1_555
H9_8 C17_8 1_555 1_555
H10_8 C17_8 1_555 1_555
C18_8 H11_8 1_555 1_555
H12_8 C18_8 1_555 1_555
H13_8 C18_8 1_555 1_555
O1_8 C13_8 1_555 1_555
O2_8 Gd5 1_555 1_555
O3_8 Gd5 1_555 1_555
O9_4 C14_8 1_555 1_555
O10 C14_8 1_555 1_555
O11_4 C15_8 1_555 1_555
O13_4 C15_8 1_555 1_555
O8_8 Gd5 1_555 1_555
N1_8 C16_8 1_555 1_555
C5_8 C6_8 1_555 1_555
C11_8 C12_8 1_555 1_555
C13_8 O3_8 1_555 1_555
C17_8 N1_8 1_555 1_555
C18_8 N1_8 1_555 1_555
C16_8 H16_8 1_555 1_555

#END
