
###############################################################################
#
# This file contains modified crystal structure data generated from the
# MOF subset of the Cambridge Structural Database (CSD) v542 
# hosted by the Cambridge Crystallographic Data Centre (CCDC).
#
# This work is licensed under the Creative Commons
# Attribution-NonCommercial-ShareAlike 4.0 International License.
# To view a copy of this license, visit
# http://creativecommons.org/licenses/by-nc-sa/4.0/
# or send a letter to
# Creative Commons, PO Box 1866, Mountain View, CA 94042, USA.
#
# CIF created using the CSD Python API on 22 February 2021
# The structure has been converted into the P1 space group
# The structure has a 3D framework
# The original CSD entry LAJKUE is in the cubic crystal system
# The original CSD entry LAJKUE is in a Sohncke space group
# The framework has been calculated to contain at least 10.0% void space
# The void calculation uses a probe of radius 1.32A, grid spacing 0.4
# The framework is charged, counterions have been retained in the structure
# H atom positions have been added when not included in the experimental data
#
###############################################################################

data_LAJKUE
_chemical_formula_moiety         '(C576 H1176 Cs20 O528 28-)n'
_symmetry_cell_setting           triclinic
_symmetry_space_group_name_H-M   'P 1'
_symmetry_Int_Tables_number      1
_space_group_name_Hall           'P 1'
loop_
_symmetry_equiv_pos_site_id
_symmetry_equiv_pos_as_xyz
1 x,y,z
_cell_length_a                   30.868(10)
_cell_length_b                   30.868(10)
_cell_length_c                   30.868(10)
_cell_angle_alpha                90
_cell_angle_beta                 90
_cell_angle_gamma                90
_cell_volume                     29412.1
loop_
_atom_site_label
_atom_site_type_symbol
_atom_site_fract_x
_atom_site_fract_y
_atom_site_fract_z
Cs4 Cs 0.32142(5) 0.67858(5) 0.0000
Cs5 Cs 0.17858(5) 0.5000 0.17858(5)
Cs6 Cs -0.0000 0.67858(5) 0.32142(5)
O12 O 0.1612(7) 0.6990(4) 0.1380(4)
C14 C 0.1806(7) 0.6590(5) 0.1242(4)
H21 H 0.2123 0.6655 0.1220
O15 O 0.1999(6) 0.5895(3) 0.1364(3)
C17 C 0.1779(5) 0.6213(5) 0.1516(4)
H29 H 0.1910 0.6292 0.1802
O20 O 0.1265(6) 0.5826(4) 0.1905(5)
C20 C 0.1283(6) 0.6140(6) 0.1593(3)
H37 H 0.1147 0.6029 0.1321
O25 O 0.0636(5) 0.6493(3) 0.1746(3)
C23 C 0.1043(8) 0.6558(5) 0.1743(4)
H40 H 0.1141 0.6635 0.2042
C26 C 0.1165(9) 0.6945(6) 0.1419(6)
O28 O 0.1211(13) 0.7438(9) 0.2035(7)
C29 C 0.1022(12) 0.7406(10) 0.1570(17)
H46 H 0.0702 0.7432 0.1573
H49 H 0.1144 0.7633 0.1379
O31 O 0.0166(4) 0.6849(3) 0.2234(3)
C32 C 0.0397(6) 0.6445(5) 0.2171(3)
H52 H 0.0622 0.6427 0.2404
O38 O 0.0448(5) 0.5675(4) 0.2151(5)
C35 C 0.0140(6) 0.6059(5) 0.2200(8)
H58 H 0.0015 0.6047 0.2499
O40 O 0.2021(7) 0.5706(5) 0.0470(5)
C37 C 0.1915(5) 0.6060(5) 0.0194(5)
H63 H 0.1609 0.6042 0.0090
O44 O 0.1678(3) 0.6489(2) 0.0821(2)
C40 C 0.1997(3) 0.6500(3) 0.0494(4)
H68 H 0.2299 0.6522 0.0609
C43 C 0.1897(4) 0.6818(4) 0.0214(7)
H71 H 0.1594 0.6789 0.0104
O48 O 0.2422(6) 0.7320(5) 0.0607(6)
C48 C 0.1988(5) 0.7313(6) 0.0419(6)
H81 H 0.1965 0.7534 0.0187
H84 H 0.1770 0.7380 0.0645
H87 H 0.102668 0.687862 0.110131
O8 O 0.0470(5) 0.5706(5) 0.7979(7)
C9 C 0.0194(5) 0.6060(5) 0.8085(5)
H14 H 0.0090 0.6042 0.8391
C10 C 0.0494(4) 0.6500(3) 0.8003(3)
H15 H 0.0609 0.6522 0.7701
C11 C 0.0214(7) 0.6818(4) 0.8103(4)
H16 H 0.0104 0.6789 0.8406
O10 O 0.0607(6) 0.7320(5) 0.7578(6)
C12 C 0.0419(6) 0.7313(6) 0.8012(5)
H18 H 0.0187 0.7534 0.8035
H19 H 0.0645 0.7380 0.8230
Cs2 Cs 0.17858(5) 0.5000 0.82142(5)
Cs3 Cs -0.0000 0.67858(5) 0.67858(5)
Cs4_2 Cs 0.32142(5) 0.67858(5) 1.0000
O11 O 0.1380(4) 0.6990(4) 0.8388(7)
C13 C 0.1242(4) 0.6590(5) 0.8194(7)
H20 H 0.1220 0.6655 0.7877
O14 O 0.1364(3) 0.5895(3) 0.8001(6)
O18 O 0.1999(6) 0.4105(3) 0.8636(3)
C16 C 0.1516(4) 0.6213(5) 0.8221(5)
H28 H 0.1802 0.6292 0.8090
O19 O 0.1905(5) 0.5826(4) 0.8735(6)
O23 O 0.1265(6) 0.4174(4) 0.8095(5)
C19 C 0.1593(3) 0.6140(6) 0.8717(6)
H36 H 0.1321 0.6029 0.8853
O24 O 0.1746(3) 0.6493(3) 0.9364(5)
C22 C 0.1743(4) 0.6558(5) 0.8957(8)
H41 H 0.2042 0.6635 0.8859
C25 C 0.1419(6) 0.6945(6) 0.8835(9)
O29 O 0.2035(7) 0.7438(9) 0.8789(13)
C30 C 0.1570(17) 0.7406(10) 0.8978(12)
H47 H 0.1573 0.7432 0.9298
H50 H 0.1379 0.7633 0.8856
O30 O 0.2234(3) 0.6849(3) 0.9834(4)
O35 O 0.2766(3) 0.5166(4) 0.8151(3)
O36 O 0.1849(3) 0.4834(4) 0.7234(3)
C31 C 0.2171(3) 0.6445(5) 0.9603(6)
H51 H 0.2404 0.6427 0.9378
O37 O 0.2151(5) 0.5675(4) 0.9552(5)
C34 C 0.2200(8) 0.6059(5) 0.9860(6)
H57 H 0.2499 0.6047 0.9985
O43 O 0.0821(2) 0.6489(2) 0.8322(3)
O51 O 0.2578(6) 0.4393(6) 0.7680(5)
O52 O 0.2320(5) 0.5607(6) 0.7422(6)
H88 H 0.110131 0.687862 0.897332
Cs6_2 Cs 1.0000 0.67858(5) 0.32142(5)
Cs7 Cs 0.82142(5) 0.5000 0.17858(5)
Cs8 Cs 0.67858(5) 0.67858(5) 0.0000
O13 O 0.8620(4) 0.6990(4) 0.1612(7)
C15 C 0.8758(4) 0.6590(5) 0.1806(7)
H22 H 0.8780 0.6655 0.2123
O16 O 0.8636(3) 0.5895(3) 0.1999(6)
C18 C 0.8484(4) 0.6213(5) 0.1779(5)
H30 H 0.8198 0.6292 0.1910
O21 O 0.8095(5) 0.5826(4) 0.1265(6)
C21 C 0.8407(3) 0.6140(6) 0.1283(6)
H38 H 0.8679 0.6029 0.1147
O26 O 0.8254(3) 0.6493(3) 0.0636(5)
C24 C 0.8257(4) 0.6558(5) 0.1043(8)
H39 H 0.7958 0.6635 0.1141
C27 C 0.8581(6) 0.6945(6) 0.1165(9)
O27 O 0.7965(7) 0.7438(9) 0.1211(13)
C28 C 0.8430(17) 0.7406(10) 0.1022(12)
H45 H 0.8427 0.7432 0.0702
H48 H 0.8621 0.7633 0.1144
O32 O 0.7766(3) 0.6849(3) 0.0166(4)
C33 C 0.7829(3) 0.6445(5) 0.0397(6)
H53 H 0.7596 0.6427 0.0622
O39 O 0.7849(5) 0.5675(4) 0.0448(5)
C36 C 0.7800(8) 0.6059(5) 0.0140(6)
H59 H 0.7501 0.6047 0.0015
O41 O 0.9530(5) 0.5706(5) 0.2021(7)
C38 C 0.9806(5) 0.6060(5) 0.1915(5)
H64 H 0.9910 0.6042 0.1609
O45 O 0.9179(2) 0.6489(2) 0.1678(3)
C41 C 0.9506(4) 0.6500(3) 0.1997(3)
H67 H 0.9391 0.6522 0.2299
C44 C 0.9786(7) 0.6818(4) 0.1897(4)
H70 H 0.9896 0.6789 0.1594
O47 O 0.9393(6) 0.7320(5) 0.2422(6)
C47 C 0.9581(6) 0.7313(6) 0.1988(5)
H80 H 0.9813 0.7534 0.1965
H83 H 0.9355 0.7380 0.1770
H85 H 0.889869 0.687862 0.102668
Cs1 Cs 0.82142(5) 0.5000 0.82142(5)
O1 O 0.8388(7) 0.6990(4) 0.8620(4)
C1 C 0.8194(7) 0.6590(5) 0.8758(4)
H1 H 0.7877 0.6655 0.8780
O2 O 0.8001(6) 0.5895(3) 0.8636(3)
C2 C 0.8221(5) 0.6213(5) 0.8484(4)
H3 H 0.8090 0.6292 0.8198
O3 O 0.8735(6) 0.5826(4) 0.8095(5)
C3 C 0.8717(6) 0.6140(6) 0.8407(3)
H5 H 0.8853 0.6029 0.8679
O4 O 0.9364(5) 0.6493(3) 0.8254(3)
C4 C 0.8957(8) 0.6558(5) 0.8257(4)
H6 H 0.8859 0.6635 0.7958
C5 C 0.8835(9) 0.6945(6) 0.8581(6)
O5 O 0.8789(13) 0.7438(9) 0.7965(7)
C6 C 0.8978(12) 0.7406(10) 0.8430(17)
H8 H 0.9298 0.7432 0.8427
H9 H 0.8856 0.7633 0.8621
O6 O 0.9834(4) 0.6849(3) 0.7766(3)
C7 C 0.9603(6) 0.6445(5) 0.7829(3)
H10 H 0.9378 0.6427 0.7596
O7 O 0.9552(5) 0.5675(4) 0.7849(5)
C8 C 0.9860(6) 0.6059(5) 0.7800(8)
H12 H 0.9985 0.6047 0.7501
O9 O 0.8322(3) 0.6489(2) 0.9179(2)
Cs3_2 Cs 1.0000 0.67858(5) 0.67858(5)
Cs8_2 Cs 0.67858(5) 0.67858(5) 1.0000
O17 O 0.8636(3) 0.4105(3) 0.8001(6)
O22 O 0.8095(5) 0.4174(4) 0.8735(6)
O33 O 0.8151(3) 0.5166(4) 0.7234(3)
O34 O 0.7234(3) 0.4834(4) 0.8151(3)
O42 O 0.7979(7) 0.5706(5) 0.9530(5)
C39 C 0.8085(5) 0.6060(5) 0.9806(5)
H65 H 0.8391 0.6042 0.9910
C42 C 0.8003(3) 0.6500(3) 0.9506(4)
H66 H 0.7701 0.6522 0.9391
C45 C 0.8103(4) 0.6818(4) 0.9786(7)
H69 H 0.8406 0.6789 0.9896
O46 O 0.7578(6) 0.7320(5) 0.9393(6)
O49 O 0.7680(5) 0.4393(6) 0.7422(6)
O50 O 0.7422(6) 0.5607(6) 0.7680(5)
C46 C 0.8012(5) 0.7313(6) 0.9581(6)
H79 H 0.8035 0.7534 0.9813
H82 H 0.8230 0.7380 0.9355
H95 H 0.897332 0.687862 0.889869
Cs4_3 Cs 0.32142(5) 0.32142(5) 0.0000
Cs5_2 Cs 0.5000 0.17858(5) 0.17858(5)
Cs6_3 Cs 0.32142(5) -0.0000 0.32142(5)
O12_2 O 0.3010(4) 0.1612(7) 0.1380(4)
C14_2 C 0.3410(5) 0.1806(7) 0.1242(4)
H21_2 H 0.3345 0.2123 0.1220
O15_2 O 0.4105(3) 0.1999(6) 0.1364(3)
C17_2 C 0.3787(5) 0.1779(5) 0.1516(4)
H29_2 H 0.3708 0.1910 0.1802
O20_2 O 0.4174(4) 0.1265(6) 0.1905(5)
C20_2 C 0.3860(6) 0.1283(6) 0.1593(3)
H37_2 H 0.3971 0.1147 0.1321
O25_2 O 0.3507(3) 0.0636(5) 0.1746(3)
C23_2 C 0.3442(5) 0.1043(8) 0.1743(4)
H40_2 H 0.3365 0.1141 0.2042
C26_2 C 0.3055(6) 0.1165(9) 0.1419(6)
O28_2 O 0.2562(9) 0.1211(13) 0.2035(7)
C29_2 C 0.2594(10) 0.1022(12) 0.1570(17)
H46_2 H 0.2568 0.0702 0.1573
H49_2 H 0.2367 0.1144 0.1379
O31_2 O 0.3151(3) 0.0166(4) 0.2234(3)
C32_2 C 0.3555(5) 0.0397(6) 0.2171(3)
H52_2 H 0.3573 0.0622 0.2404
O38_2 O 0.4325(4) 0.0448(5) 0.2151(5)
C35_2 C 0.3941(5) 0.0140(6) 0.2200(8)
H58_2 H 0.3953 0.0015 0.2499
O40_2 O 0.4294(5) 0.2021(7) 0.0470(5)
C37_2 C 0.3940(5) 0.1915(5) 0.0194(5)
H63_2 H 0.3958 0.1609 0.0090
O44_2 O 0.3511(2) 0.1678(3) 0.0821(2)
C40_2 C 0.3500(3) 0.1997(3) 0.0494(4)
H68_2 H 0.3478 0.2299 0.0609
C43_2 C 0.3182(4) 0.1897(4) 0.0214(7)
H71_2 H 0.3211 0.1594 0.0104
O48_2 O 0.2680(5) 0.2422(6) 0.0607(6)
C48_2 C 0.2687(6) 0.1988(5) 0.0419(6)
H81_2 H 0.2466 0.1965 0.0187
H84_2 H 0.2620 0.1770 0.0645
H87_2 H 0.312138 0.102668 0.110131
O8_2 O 0.4294(5) 0.0470(5) 0.7979(7)
C9_2 C 0.3940(5) 0.0194(5) 0.8085(5)
H14_2 H 0.3958 0.0090 0.8391
C10_2 C 0.3500(3) 0.0494(4) 0.8003(3)
H15_2 H 0.3478 0.0609 0.7701
C11_2 C 0.3182(4) 0.0214(7) 0.8103(4)
H16_2 H 0.3211 0.0104 0.8406
O10_2 O 0.2680(5) 0.0607(6) 0.7578(6)
C12_2 C 0.2687(6) 0.0419(6) 0.8012(5)
H18_2 H 0.2466 0.0187 0.8035
H19_2 H 0.2620 0.0645 0.8230
Cs2_2 Cs 0.5000 0.17858(5) 0.82142(5)
Cs3_3 Cs 0.32142(5) -0.0000 0.67858(5)
Cs4_4 Cs 0.32142(5) 0.32142(5) 1.0000
O11_2 O 0.3010(4) 0.1380(4) 0.8388(7)
C13_2 C 0.3410(5) 0.1242(4) 0.8194(7)
H20_2 H 0.3345 0.1220 0.7877
O14_2 O 0.4105(3) 0.1364(3) 0.8001(6)
O18_2 O 0.5895(3) 0.1999(6) 0.8636(3)
C16_2 C 0.3787(5) 0.1516(4) 0.8221(5)
H28_2 H 0.3708 0.1802 0.8090
O19_2 O 0.4174(4) 0.1905(5) 0.8735(6)
O23_2 O 0.5826(4) 0.1265(6) 0.8095(5)
C19_2 C 0.3860(6) 0.1593(3) 0.8717(6)
H36_2 H 0.3971 0.1321 0.8853
O24_2 O 0.3507(3) 0.1746(3) 0.9364(5)
C22_2 C 0.3442(5) 0.1743(4) 0.8957(8)
H41_2 H 0.3365 0.2042 0.8859
C25_2 C 0.3055(6) 0.1419(6) 0.8835(9)
O29_2 O 0.2562(9) 0.2035(7) 0.8789(13)
C30_2 C 0.2594(10) 0.1570(17) 0.8978(12)
H47_2 H 0.2568 0.1573 0.9298
H50_2 H 0.2367 0.1379 0.8856
O30_2 O 0.3151(3) 0.2234(3) 0.9834(4)
O35_2 O 0.4834(4) 0.2766(3) 0.8151(3)
O36_2 O 0.5166(4) 0.1849(3) 0.7234(3)
C31_2 C 0.3555(5) 0.2171(3) 0.9603(6)
H51_2 H 0.3573 0.2404 0.9378
O37_2 O 0.4325(4) 0.2151(5) 0.9552(5)
C34_2 C 0.3941(5) 0.2200(8) 0.9860(6)
H57_2 H 0.3953 0.2499 0.9985
O43_2 O 0.3511(2) 0.0821(2) 0.8322(3)
O51_2 O 0.5607(6) 0.2578(6) 0.7680(5)
O52_2 O 0.4393(6) 0.2320(5) 0.7422(6)
H88_2 H 0.312138 0.110131 0.897332
Cs6_4 Cs 0.32142(5) 1.0000 0.32142(5)
Cs7_2 Cs 0.5000 0.82142(5) 0.17858(5)
O13_2 O 0.3010(4) 0.8620(4) 0.1612(7)
C15_2 C 0.3410(5) 0.8758(4) 0.1806(7)
H22_2 H 0.3345 0.8780 0.2123
O16_2 O 0.4105(3) 0.8636(3) 0.1999(6)
C18_2 C 0.3787(5) 0.8484(4) 0.1779(5)
H30_2 H 0.3708 0.8198 0.1910
O21_2 O 0.4174(4) 0.8095(5) 0.1265(6)
C21_2 C 0.3860(6) 0.8407(3) 0.1283(6)
H38_2 H 0.3971 0.8679 0.1147
O26_2 O 0.3507(3) 0.8254(3) 0.0636(5)
C24_2 C 0.3442(5) 0.8257(4) 0.1043(8)
H39_2 H 0.3365 0.7958 0.1141
C27_2 C 0.3055(6) 0.8581(6) 0.1165(9)
O27_2 O 0.2562(9) 0.7965(7) 0.1211(13)
C28_2 C 0.2594(10) 0.8430(17) 0.1022(12)
H45_2 H 0.2568 0.8427 0.0702
H48_2 H 0.2367 0.8621 0.1144
O32_2 O 0.3151(3) 0.7766(3) 0.0166(4)
C33_2 C 0.3555(5) 0.7829(3) 0.0397(6)
H53_2 H 0.3573 0.7596 0.0622
O39_2 O 0.4325(4) 0.7849(5) 0.0448(5)
C36_2 C 0.3941(5) 0.7800(8) 0.0140(6)
H59_2 H 0.3953 0.7501 0.0015
O41_2 O 0.4294(5) 0.9530(5) 0.2021(7)
C38_2 C 0.3940(5) 0.9806(5) 0.1915(5)
H64_2 H 0.3958 0.9910 0.1609
O45_2 O 0.3511(2) 0.9179(2) 0.1678(3)
C41_2 C 0.3500(3) 0.9506(4) 0.1997(3)
H67_2 H 0.3478 0.9391 0.2299
C44_2 C 0.3182(4) 0.9786(7) 0.1897(4)
H70_2 H 0.3211 0.9896 0.1594
O47_2 O 0.2680(5) 0.9393(6) 0.2422(6)
C47_2 C 0.2687(6) 0.9581(6) 0.1988(5)
H80_2 H 0.2466 0.9813 0.1965
H83_2 H 0.2620 0.9355 0.1770
H85_2 H 0.312138 0.889869 0.102668
Cs1_2 Cs 0.5000 0.82142(5) 0.82142(5)
O1_2 O 0.3010(4) 0.8388(7) 0.8620(4)
C1_2 C 0.3410(5) 0.8194(7) 0.8758(4)
H1_2 H 0.3345 0.7877 0.8780
O2_2 O 0.4105(3) 0.8001(6) 0.8636(3)
C2_2 C 0.3787(5) 0.8221(5) 0.8484(4)
H3_2 H 0.3708 0.8090 0.8198
O3_2 O 0.4174(4) 0.8735(6) 0.8095(5)
C3_2 C 0.3860(6) 0.8717(6) 0.8407(3)
H5_2 H 0.3971 0.8853 0.8679
O4_2 O 0.3507(3) 0.9364(5) 0.8254(3)
C4_2 C 0.3442(5) 0.8957(8) 0.8257(4)
H6_2 H 0.3365 0.8859 0.7958
C5_2 C 0.3055(6) 0.8835(9) 0.8581(6)
O5_2 O 0.2562(9) 0.8789(13) 0.7965(7)
C6_2 C 0.2594(10) 0.8978(12) 0.8430(17)
H8_2 H 0.2568 0.9298 0.8427
H9_2 H 0.2367 0.8856 0.8621
O6_2 O 0.3151(3) 0.9834(4) 0.7766(3)
C7_2 C 0.3555(5) 0.9603(6) 0.7829(3)
H10_2 H 0.3573 0.9378 0.7596
O7_2 O 0.4325(4) 0.9552(5) 0.7849(5)
C8_2 C 0.3941(5) 0.9860(6) 0.7800(8)
H12_2 H 0.3953 0.9985 0.7501
O9_2 O 0.3511(2) 0.8322(3) 0.9179(2)
Cs3_4 Cs 0.32142(5) 1.0000 0.67858(5)
O17_2 O 0.5895(3) 0.8636(3) 0.8001(6)
O22_2 O 0.5826(4) 0.8095(5) 0.8735(6)
O33_2 O 0.4834(4) 0.8151(3) 0.7234(3)
O34_2 O 0.5166(4) 0.7234(3) 0.8151(3)
O42_2 O 0.4294(5) 0.7979(7) 0.9530(5)
C39_2 C 0.3940(5) 0.8085(5) 0.9806(5)
H65_2 H 0.3958 0.8391 0.9910
C42_2 C 0.3500(3) 0.8003(3) 0.9506(4)
H66_2 H 0.3478 0.7701 0.9391
C45_2 C 0.3182(4) 0.8103(4) 0.9786(7)
H69_2 H 0.3211 0.8406 0.9896
O46_2 O 0.2680(5) 0.7578(6) 0.9393(6)
O49_2 O 0.5607(6) 0.7680(5) 0.7422(6)
O50_2 O 0.4393(6) 0.7422(6) 0.7680(5)
C46_2 C 0.2687(6) 0.8012(5) 0.9581(6)
H79_2 H 0.2466 0.8035 0.9813
H82_2 H 0.2620 0.8230 0.9355
H95_2 H 0.312138 0.897332 0.889869
O8_3 O 0.0470(5) 0.4294(5) 0.2021(7)
C9_3 C 0.0194(5) 0.3940(5) 0.1915(5)
H14_3 H 0.0090 0.3958 0.1609
C10_3 C 0.0494(4) 0.3500(3) 0.1997(3)
H15_3 H 0.0609 0.3478 0.2299
C11_3 C 0.0214(7) 0.3182(4) 0.1897(4)
H16_3 H 0.0104 0.3211 0.1594
O10_3 O 0.0607(6) 0.2680(5) 0.2422(6)
C12_3 C 0.0419(6) 0.2687(6) 0.1988(5)
H18_3 H 0.0187 0.2466 0.1965
H19_3 H 0.0645 0.2620 0.1770
Cs3_5 Cs -0.0000 0.32142(5) 0.32142(5)
O11_3 O 0.1380(4) 0.3010(4) 0.1612(7)
C13_3 C 0.1242(4) 0.3410(5) 0.1806(7)
H20_3 H 0.1220 0.3345 0.2123
O14_3 O 0.1364(3) 0.4105(3) 0.1999(6)
C16_3 C 0.1516(4) 0.3787(5) 0.1779(5)
H28_3 H 0.1802 0.3708 0.1910
O19_3 O 0.1905(5) 0.4174(4) 0.1265(6)
C19_3 C 0.1593(3) 0.3860(6) 0.1283(6)
H36_3 H 0.1321 0.3971 0.1147
O24_3 O 0.1746(3) 0.3507(3) 0.0636(5)
C22_3 C 0.1743(4) 0.3442(5) 0.1043(8)
H41_3 H 0.2042 0.3365 0.1141
C25_3 C 0.1419(6) 0.3055(6) 0.1165(9)
O29_3 O 0.2035(7) 0.2562(9) 0.1211(13)
C30_3 C 0.1570(17) 0.2594(10) 0.1022(12)
H47_3 H 0.1573 0.2568 0.0702
H50_3 H 0.1379 0.2367 0.1144
O30_3 O 0.2234(3) 0.3151(3) 0.0166(4)
O35_3 O 0.2766(3) 0.4834(4) 0.1849(3)
O36_3 O 0.1849(3) 0.5166(4) 0.2766(3)
C31_3 C 0.2171(3) 0.3555(5) 0.0397(6)
H51_3 H 0.2404 0.3573 0.0622
O37_3 O 0.2151(5) 0.4325(4) 0.0448(5)
C34_3 C 0.2200(8) 0.3941(5) 0.0140(6)
H57_3 H 0.2499 0.3953 0.0015
O43_3 O 0.0821(2) 0.3511(2) 0.1678(3)
O51_3 O 0.2578(6) 0.5607(6) 0.2320(5)
O52_3 O 0.2320(5) 0.4393(6) 0.2578(6)
H88_3 H 0.110131 0.312138 0.102668
Cs6_5 Cs -0.0000 0.32142(5) 0.67858(5)
O12_3 O 0.1612(7) 0.3010(4) 0.8620(4)
C14_3 C 0.1806(7) 0.3410(5) 0.8758(4)
H21_3 H 0.2123 0.3345 0.8780
C17_3 C 0.1779(5) 0.3787(5) 0.8484(4)
H29_3 H 0.1910 0.3708 0.8198
C20_3 C 0.1283(6) 0.3860(6) 0.8407(3)
H37_3 H 0.1147 0.3971 0.8679
O25_3 O 0.0636(5) 0.3507(3) 0.8254(3)
C23_3 C 0.1043(8) 0.3442(5) 0.8257(4)
H40_3 H 0.1141 0.3365 0.7958
C26_3 C 0.1165(9) 0.3055(6) 0.8581(6)
O28_3 O 0.1211(13) 0.2562(9) 0.7965(7)
C29_3 C 0.1022(12) 0.2594(10) 0.8430(17)
H46_3 H 0.0702 0.2568 0.8427
H49_3 H 0.1144 0.2367 0.8621
O31_3 O 0.0166(4) 0.3151(3) 0.7766(3)
C32_3 C 0.0397(6) 0.3555(5) 0.7829(3)
H52_3 H 0.0622 0.3573 0.7596
O38_3 O 0.0448(5) 0.4325(4) 0.7849(5)
C35_3 C 0.0140(6) 0.3941(5) 0.7800(8)
H58_3 H 0.0015 0.3953 0.7501
O40_3 O 0.2021(7) 0.4294(5) 0.9530(5)
C37_3 C 0.1915(5) 0.3940(5) 0.9806(5)
H63_3 H 0.1609 0.3958 0.9910
O44_3 O 0.1678(3) 0.3511(2) 0.9179(2)
C40_3 C 0.1997(3) 0.3500(3) 0.9506(4)
H68_3 H 0.2299 0.3478 0.9391
C43_3 C 0.1897(4) 0.3182(4) 0.9786(7)
H71_3 H 0.1594 0.3211 0.9896
O48_3 O 0.2422(6) 0.2680(5) 0.9393(6)
C48_3 C 0.1988(5) 0.2687(6) 0.9581(6)
H81_3 H 0.1965 0.2466 0.9813
H84_3 H 0.1770 0.2620 0.9355
H87_3 H 0.102668 0.312138 0.889869
O1_3 O 0.8388(7) 0.3010(4) 0.1380(4)
C1_3 C 0.8194(7) 0.3410(5) 0.1242(4)
H1_3 H 0.7877 0.3345 0.1220
O2_3 O 0.8001(6) 0.4105(3) 0.1364(3)
C2_3 C 0.8221(5) 0.3787(5) 0.1516(4)
H3_3 H 0.8090 0.3708 0.1802
O3_3 O 0.8735(6) 0.4174(4) 0.1905(5)
C3_3 C 0.8717(6) 0.3860(6) 0.1593(3)
H5_3 H 0.8853 0.3971 0.1321
O4_3 O 0.9364(5) 0.3507(3) 0.1746(3)
C4_3 C 0.8957(8) 0.3442(5) 0.1743(4)
H6_3 H 0.8859 0.3365 0.2042
C5_3 C 0.8835(9) 0.3055(6) 0.1419(6)
O5_3 O 0.8789(13) 0.2562(9) 0.2035(7)
C6_3 C 0.8978(12) 0.2594(10) 0.1570(17)
H8_3 H 0.9298 0.2568 0.1573
H9_3 H 0.8856 0.2367 0.1379
O6_3 O 0.9834(4) 0.3151(3) 0.2234(3)
C7_3 C 0.9603(6) 0.3555(5) 0.2171(3)
H10_3 H 0.9378 0.3573 0.2404
O7_3 O 0.9552(5) 0.4325(4) 0.2151(5)
C8_3 C 0.9860(6) 0.3941(5) 0.2200(8)
H12_3 H 0.9985 0.3953 0.2499
O9_3 O 0.8322(3) 0.3511(2) 0.0821(2)
Cs3_6 Cs 1.0000 0.32142(5) 0.32142(5)
Cs8_3 Cs 0.67858(5) 0.32142(5) 0.0000
O33_3 O 0.8151(3) 0.4834(4) 0.2766(3)
O34_3 O 0.7234(3) 0.5166(4) 0.1849(3)
O42_3 O 0.7979(7) 0.4294(5) 0.0470(5)
C39_3 C 0.8085(5) 0.3940(5) 0.0194(5)
H65_3 H 0.8391 0.3958 0.0090
C42_3 C 0.8003(3) 0.3500(3) 0.0494(4)
H66_3 H 0.7701 0.3478 0.0609
C45_3 C 0.8103(4) 0.3182(4) 0.0214(7)
H69_3 H 0.8406 0.3211 0.0104
O46_3 O 0.7578(6) 0.2680(5) 0.0607(6)
O49_3 O 0.7680(5) 0.5607(6) 0.2578(6)
O50_3 O 0.7422(6) 0.4393(6) 0.2320(5)
C46_3 C 0.8012(5) 0.2687(6) 0.0419(6)
H79_3 H 0.8035 0.2466 0.0187
H82_3 H 0.8230 0.2620 0.0645
H95_3 H 0.897332 0.312138 0.110131
Cs6_6 Cs 1.0000 0.32142(5) 0.67858(5)
Cs8_4 Cs 0.67858(5) 0.32142(5) 1.0000
O13_3 O 0.8620(4) 0.3010(4) 0.8388(7)
C15_3 C 0.8758(4) 0.3410(5) 0.8194(7)
H22_3 H 0.8780 0.3345 0.7877
C18_3 C 0.8484(4) 0.3787(5) 0.8221(5)
H30_3 H 0.8198 0.3708 0.8090
C21_3 C 0.8407(3) 0.3860(6) 0.8717(6)
H38_3 H 0.8679 0.3971 0.8853
O26_3 O 0.8254(3) 0.3507(3) 0.9364(5)
C24_3 C 0.8257(4) 0.3442(5) 0.8957(8)
H39_3 H 0.7958 0.3365 0.8859
C27_3 C 0.8581(6) 0.3055(6) 0.8835(9)
O27_3 O 0.7965(7) 0.2562(9) 0.8789(13)
C28_3 C 0.8430(17) 0.2594(10) 0.8978(12)
H45_3 H 0.8427 0.2568 0.9298
H48_3 H 0.8621 0.2367 0.8856
O32_3 O 0.7766(3) 0.3151(3) 0.9834(4)
C33_3 C 0.7829(3) 0.3555(5) 0.9603(6)
H53_3 H 0.7596 0.3573 0.9378
O39_3 O 0.7849(5) 0.4325(4) 0.9552(5)
C36_3 C 0.7800(8) 0.3941(5) 0.9860(6)
H59_3 H 0.7501 0.3953 0.9985
O41_3 O 0.9530(5) 0.4294(5) 0.7979(7)
C38_3 C 0.9806(5) 0.3940(5) 0.8085(5)
H64_3 H 0.9910 0.3958 0.8391
O45_3 O 0.9179(2) 0.3511(2) 0.8322(3)
C41_3 C 0.9506(4) 0.3500(3) 0.8003(3)
H67_3 H 0.9391 0.3478 0.7701
C44_3 C 0.9786(7) 0.3182(4) 0.8103(4)
H70_3 H 0.9896 0.3211 0.8406
O47_3 O 0.9393(6) 0.2680(5) 0.7578(6)
C47_3 C 0.9581(6) 0.2687(6) 0.8012(5)
H80_3 H 0.9813 0.2466 0.8035
H83_3 H 0.9355 0.2620 0.8230
H85_3 H 0.889869 0.312138 0.897332
Cs5_3 Cs 0.17858(5) 0.17858(5) 0.5000
O12_4 O 0.1380(4) 0.1612(7) 0.6990(4)
C14_4 C 0.1242(4) 0.1806(7) 0.6590(5)
H21_4 H 0.1220 0.2123 0.6655
O15_3 O 0.1364(3) 0.1999(6) 0.5895(3)
C17_4 C 0.1516(4) 0.1779(5) 0.6213(5)
H29_4 H 0.1802 0.1910 0.6292
O20_3 O 0.1905(5) 0.1265(6) 0.5826(4)
C20_4 C 0.1593(3) 0.1283(6) 0.6140(6)
H37_4 H 0.1321 0.1147 0.6029
O25_4 O 0.1746(3) 0.0636(5) 0.6493(3)
C23_4 C 0.1743(4) 0.1043(8) 0.6558(5)
H40_4 H 0.2042 0.1141 0.6635
C26_4 C 0.1419(6) 0.1165(9) 0.6945(6)
O28_4 O 0.2035(7) 0.1211(13) 0.7438(9)
C29_4 C 0.1570(17) 0.1022(12) 0.7406(10)
H46_4 H 0.1573 0.0702 0.7432
H49_4 H 0.1379 0.1144 0.7633
O31_4 O 0.2234(3) 0.0166(4) 0.6849(3)
C32_4 C 0.2171(3) 0.0397(6) 0.6445(5)
H52_4 H 0.2404 0.0622 0.6427
O38_4 O 0.2151(5) 0.0448(5) 0.5675(4)
C35_4 C 0.2200(8) 0.0140(6) 0.6059(5)
H58_4 H 0.2499 0.0015 0.6047
O40_4 O 0.0470(5) 0.2021(7) 0.5706(5)
C37_4 C 0.0194(5) 0.1915(5) 0.6060(5)
H63_4 H 0.0090 0.1609 0.6042
O44_4 O 0.0821(2) 0.1678(3) 0.6489(2)
C40_4 C 0.0494(4) 0.1997(3) 0.6500(3)
H68_4 H 0.0609 0.2299 0.6522
C43_4 C 0.0214(7) 0.1897(4) 0.6818(4)
H71_4 H 0.0104 0.1594 0.6789
O48_4 O 0.0607(6) 0.2422(6) 0.7320(5)
C48_4 C 0.0419(6) 0.1988(5) 0.7313(6)
H81_4 H 0.0187 0.1965 0.7534
H84_4 H 0.0645 0.1770 0.7380
H87_4 H 0.110131 0.102668 0.687862
Cs7_3 Cs 0.17858(5) 0.82142(5) 0.5000
O13_4 O 0.1612(7) 0.8620(4) 0.6990(4)
C15_4 C 0.1806(7) 0.8758(4) 0.6590(5)
H22_4 H 0.2123 0.8780 0.6655
O16_3 O 0.1999(6) 0.8636(3) 0.5895(3)
C18_4 C 0.1779(5) 0.8484(4) 0.6213(5)
H30_4 H 0.1910 0.8198 0.6292
O21_3 O 0.1265(6) 0.8095(5) 0.5826(4)
C21_4 C 0.1283(6) 0.8407(3) 0.6140(6)
H38_4 H 0.1147 0.8679 0.6029
O26_4 O 0.0636(5) 0.8254(3) 0.6493(3)
C24_4 C 0.1043(8) 0.8257(4) 0.6558(5)
H39_4 H 0.1141 0.7958 0.6635
C27_4 C 0.1165(9) 0.8581(6) 0.6945(6)
O27_4 O 0.1211(13) 0.7965(7) 0.7438(9)
C28_4 C 0.1022(12) 0.8430(17) 0.7406(10)
H45_4 H 0.0702 0.8427 0.7432
H48_4 H 0.1144 0.8621 0.7633
O32_4 O 0.0166(4) 0.7766(3) 0.6849(3)
C33_4 C 0.0397(6) 0.7829(3) 0.6445(5)
H53_4 H 0.0622 0.7596 0.6427
O39_4 O 0.0448(5) 0.7849(5) 0.5675(4)
C36_4 C 0.0140(6) 0.7800(8) 0.6059(5)
H59_4 H 0.0015 0.7501 0.6047
O41_4 O 0.2021(7) 0.9530(5) 0.5706(5)
C38_4 C 0.1915(5) 0.9806(5) 0.6060(5)
H64_4 H 0.1609 0.9910 0.6042
O45_4 O 0.1678(3) 0.9179(2) 0.6489(2)
C41_4 C 0.1997(3) 0.9506(4) 0.6500(3)
H67_4 H 0.2299 0.9391 0.6522
C44_4 C 0.1897(4) 0.9786(7) 0.6818(4)
H70_4 H 0.1594 0.9896 0.6789
O47_4 O 0.2422(6) 0.9393(6) 0.7320(5)
C47_4 C 0.1988(5) 0.9581(6) 0.7313(6)
H80_4 H 0.1965 0.9813 0.7534
H83_4 H 0.1770 0.9355 0.7380
H85_4 H 0.102668 0.889869 0.687862
O8_4 O 0.7979(7) 0.0470(5) 0.5706(5)
C9_4 C 0.8085(5) 0.0194(5) 0.6060(5)
H14_4 H 0.8391 0.0090 0.6042
C10_4 C 0.8003(3) 0.0494(4) 0.6500(3)
H15_4 H 0.7701 0.0609 0.6522
C11_4 C 0.8103(4) 0.0214(7) 0.6818(4)
H16_4 H 0.8406 0.0104 0.6789
O10_4 O 0.7578(6) 0.0607(6) 0.7320(5)
C12_4 C 0.8012(5) 0.0419(6) 0.7313(6)
H18_4 H 0.8035 0.0187 0.7534
H19_4 H 0.8230 0.0645 0.7380
Cs2_3 Cs 0.82142(5) 0.17858(5) 0.5000
Cs3_7 Cs 0.67858(5) -0.0000 0.67858(5)
O11_4 O 0.8388(7) 0.1380(4) 0.6990(4)
C13_4 C 0.8194(7) 0.1242(4) 0.6590(5)
H20_4 H 0.7877 0.1220 0.6655
O14_4 O 0.8001(6) 0.1364(3) 0.5895(3)
O18_3 O 0.8636(3) 0.1999(6) 0.4105(3)
C16_4 C 0.8221(5) 0.1516(4) 0.6213(5)
H28_4 H 0.8090 0.1802 0.6292
O19_4 O 0.8735(6) 0.1905(5) 0.5826(4)
O23_3 O 0.8095(5) 0.1265(6) 0.4174(4)
C19_4 C 0.8717(6) 0.1593(3) 0.6140(6)
H36_4 H 0.8853 0.1321 0.6029
O24_4 O 0.9364(5) 0.1746(3) 0.6493(3)
C22_4 C 0.8957(8) 0.1743(4) 0.6558(5)
H41_4 H 0.8859 0.2042 0.6635
C25_4 C 0.8835(9) 0.1419(6) 0.6945(6)
O29_4 O 0.8789(13) 0.2035(7) 0.7438(9)
C30_4 C 0.8978(12) 0.1570(17) 0.7406(10)
H47_4 H 0.9298 0.1573 0.7432
H50_4 H 0.8856 0.1379 0.7633
O30_4 O 0.9834(4) 0.2234(3) 0.6849(3)
O35_4 O 0.8151(3) 0.2766(3) 0.5166(4)
O36_4 O 0.7234(3) 0.1849(3) 0.4834(4)
C31_4 C 0.9603(6) 0.2171(3) 0.6445(5)
H51_4 H 0.9378 0.2404 0.6427
O37_4 O 0.9552(5) 0.2151(5) 0.5675(4)
C34_4 C 0.9860(6) 0.2200(8) 0.6059(5)
H57_4 H 0.9985 0.2499 0.6047
O43_4 O 0.8322(3) 0.0821(2) 0.6489(2)
O51_4 O 0.7680(5) 0.2578(6) 0.4393(6)
O52_4 O 0.7422(6) 0.2320(5) 0.5607(6)
H88_4 H 0.897332 0.110131 0.687862
Cs1_3 Cs 0.82142(5) 0.82142(5) 0.5000
O1_4 O 0.8620(4) 0.8388(7) 0.6990(4)
C1_4 C 0.8758(4) 0.8194(7) 0.6590(5)
H1_4 H 0.8780 0.7877 0.6655
O2_4 O 0.8636(3) 0.8001(6) 0.5895(3)
C2_4 C 0.8484(4) 0.8221(5) 0.6213(5)
H3_4 H 0.8198 0.8090 0.6292
O3_4 O 0.8095(5) 0.8735(6) 0.5826(4)
C3_4 C 0.8407(3) 0.8717(6) 0.6140(6)
H5_4 H 0.8679 0.8853 0.6029
O4_4 O 0.8254(3) 0.9364(5) 0.6493(3)
C4_4 C 0.8257(4) 0.8957(8) 0.6558(5)
H6_4 H 0.7958 0.8859 0.6635
C5_4 C 0.8581(6) 0.8835(9) 0.6945(6)
O5_4 O 0.7965(7) 0.8789(13) 0.7438(9)
C6_4 C 0.8430(17) 0.8978(12) 0.7406(10)
H8_4 H 0.8427 0.9298 0.7432
H9_4 H 0.8621 0.8856 0.7633
O6_4 O 0.7766(3) 0.9834(4) 0.6849(3)
C7_4 C 0.7829(3) 0.9603(6) 0.6445(5)
H10_4 H 0.7596 0.9378 0.6427
O7_4 O 0.7849(5) 0.9552(5) 0.5675(4)
C8_4 C 0.7800(8) 0.9860(6) 0.6059(5)
H12_4 H 0.7501 0.9985 0.6047
O9_4 O 0.9179(2) 0.8322(3) 0.6489(2)
Cs3_8 Cs 0.67858(5) 1.0000 0.67858(5)
O17_3 O 0.8001(6) 0.8636(3) 0.4105(3)
O22_3 O 0.8735(6) 0.8095(5) 0.4174(4)
O33_4 O 0.7234(3) 0.8151(3) 0.5166(4)
O34_4 O 0.8151(3) 0.7234(3) 0.4834(4)
O42_4 O 0.9530(5) 0.7979(7) 0.5706(5)
C39_4 C 0.9806(5) 0.8085(5) 0.6060(5)
H65_4 H 0.9910 0.8391 0.6042
C42_4 C 0.9506(4) 0.8003(3) 0.6500(3)
H66_4 H 0.9391 0.7701 0.6522
C45_4 C 0.9786(7) 0.8103(4) 0.6818(4)
H69_4 H 0.9896 0.8406 0.6789
O46_4 O 0.9393(6) 0.7578(6) 0.7320(5)
O49_4 O 0.7422(6) 0.7680(5) 0.4393(6)
O50_4 O 0.7680(5) 0.7422(6) 0.5607(6)
C46_4 C 0.9581(6) 0.8012(5) 0.7313(6)
H79_4 H 0.9813 0.8035 0.7534
H82_4 H 0.9355 0.8230 0.7380
H95_4 H 0.889869 0.897332 0.687862
O8_5 O 0.5706(5) 0.0470(5) 0.2021(7)
C9_5 C 0.6060(5) 0.0194(5) 0.1915(5)
H14_5 H 0.6042 0.0090 0.1609
C10_5 C 0.6500(3) 0.0494(4) 0.1997(3)
H15_5 H 0.6522 0.0609 0.2299
C11_5 C 0.6818(4) 0.0214(7) 0.1897(4)
H16_5 H 0.6789 0.0104 0.1594
O10_5 O 0.7320(5) 0.0607(6) 0.2422(6)
C12_5 C 0.7313(6) 0.0419(6) 0.1988(5)
H18_5 H 0.7534 0.0187 0.1965
H19_5 H 0.7380 0.0645 0.1770
Cs3_9 Cs 0.67858(5) -0.0000 0.32142(5)
O11_5 O 0.6990(4) 0.1380(4) 0.1612(7)
C13_5 C 0.6590(5) 0.1242(4) 0.1806(7)
H20_5 H 0.6655 0.1220 0.2123
O14_5 O 0.5895(3) 0.1364(3) 0.1999(6)
C16_5 C 0.6213(5) 0.1516(4) 0.1779(5)
H28_5 H 0.6292 0.1802 0.1910
O19_5 O 0.5826(4) 0.1905(5) 0.1265(6)
C19_5 C 0.6140(6) 0.1593(3) 0.1283(6)
H36_5 H 0.6029 0.1321 0.1147
O24_5 O 0.6493(3) 0.1746(3) 0.0636(5)
C22_5 C 0.6558(5) 0.1743(4) 0.1043(8)
H41_5 H 0.6635 0.2042 0.1141
C25_5 C 0.6945(6) 0.1419(6) 0.1165(9)
O29_5 O 0.7438(9) 0.2035(7) 0.1211(13)
C30_5 C 0.7406(10) 0.1570(17) 0.1022(12)
H47_5 H 0.7432 0.1573 0.0702
H50_5 H 0.7633 0.1379 0.1144
O30_5 O 0.6849(3) 0.2234(3) 0.0166(4)
O35_5 O 0.5166(4) 0.2766(3) 0.1849(3)
O36_5 O 0.4834(4) 0.1849(3) 0.2766(3)
C31_5 C 0.6445(5) 0.2171(3) 0.0397(6)
H51_5 H 0.6427 0.2404 0.0622
O37_5 O 0.5675(4) 0.2151(5) 0.0448(5)
C34_5 C 0.6059(5) 0.2200(8) 0.0140(6)
H57_5 H 0.6047 0.2499 0.0015
O43_5 O 0.6489(2) 0.0821(2) 0.1678(3)
O51_5 O 0.4393(6) 0.2578(6) 0.2320(5)
O52_5 O 0.5607(6) 0.2320(5) 0.2578(6)
H88_5 H 0.687862 0.110131 0.102668
O12_5 O 0.6990(4) 0.1612(7) 0.8620(4)
C14_5 C 0.6590(5) 0.1806(7) 0.8758(4)
H21_5 H 0.6655 0.2123 0.8780
C17_5 C 0.6213(5) 0.1779(5) 0.8484(4)
H29_5 H 0.6292 0.1910 0.8198
C20_5 C 0.6140(6) 0.1283(6) 0.8407(3)
H37_5 H 0.6029 0.1147 0.8679
O25_5 O 0.6493(3) 0.0636(5) 0.8254(3)
C23_5 C 0.6558(5) 0.1043(8) 0.8257(4)
H40_5 H 0.6635 0.1141 0.7958
C26_5 C 0.6945(6) 0.1165(9) 0.8581(6)
O28_5 O 0.7438(9) 0.1211(13) 0.7965(7)
C29_5 C 0.7406(10) 0.1022(12) 0.8430(17)
H46_5 H 0.7432 0.0702 0.8427
H49_5 H 0.7633 0.1144 0.8621
O31_5 O 0.6849(3) 0.0166(4) 0.7766(3)
C32_5 C 0.6445(5) 0.0397(6) 0.7829(3)
H52_5 H 0.6427 0.0622 0.7596
O38_5 O 0.5675(4) 0.0448(5) 0.7849(5)
C35_5 C 0.6059(5) 0.0140(6) 0.7800(8)
H58_5 H 0.6047 0.0015 0.7501
O40_5 O 0.5706(5) 0.2021(7) 0.9530(5)
C37_5 C 0.6060(5) 0.1915(5) 0.9806(5)
H63_5 H 0.6042 0.1609 0.9910
O44_5 O 0.6489(2) 0.1678(3) 0.9179(2)
C40_5 C 0.6500(3) 0.1997(3) 0.9506(4)
H68_5 H 0.6522 0.2299 0.9391
C43_5 C 0.6818(4) 0.1897(4) 0.9786(7)
H71_5 H 0.6789 0.1594 0.9896
O48_5 O 0.7320(5) 0.2422(6) 0.9393(6)
C48_5 C 0.7313(6) 0.1988(5) 0.9581(6)
H81_5 H 0.7534 0.1965 0.9813
H84_5 H 0.7380 0.1770 0.9355
H87_5 H 0.687862 0.102668 0.889869
O1_5 O 0.6990(4) 0.8388(7) 0.1380(4)
C1_5 C 0.6590(5) 0.8194(7) 0.1242(4)
H1_5 H 0.6655 0.7877 0.1220
O2_5 O 0.5895(3) 0.8001(6) 0.1364(3)
C2_5 C 0.6213(5) 0.8221(5) 0.1516(4)
H3_5 H 0.6292 0.8090 0.1802
O3_5 O 0.5826(4) 0.8735(6) 0.1905(5)
C3_5 C 0.6140(6) 0.8717(6) 0.1593(3)
H5_5 H 0.6029 0.8853 0.1321
O4_5 O 0.6493(3) 0.9364(5) 0.1746(3)
C4_5 C 0.6558(5) 0.8957(8) 0.1743(4)
H6_5 H 0.6635 0.8859 0.2042
C5_5 C 0.6945(6) 0.8835(9) 0.1419(6)
O5_5 O 0.7438(9) 0.8789(13) 0.2035(7)
C6_5 C 0.7406(10) 0.8978(12) 0.1570(17)
H8_5 H 0.7432 0.9298 0.1573
H9_5 H 0.7633 0.8856 0.1379
O6_5 O 0.6849(3) 0.9834(4) 0.2234(3)
C7_5 C 0.6445(5) 0.9603(6) 0.2171(3)
H10_5 H 0.6427 0.9378 0.2404
O7_5 O 0.5675(4) 0.9552(5) 0.2151(5)
C8_5 C 0.6059(5) 0.9860(6) 0.2200(8)
H12_5 H 0.6047 0.9985 0.2499
O9_5 O 0.6489(2) 0.8322(3) 0.0821(2)
Cs3_10 Cs 0.67858(5) 1.0000 0.32142(5)
O33_5 O 0.5166(4) 0.8151(3) 0.2766(3)
O34_5 O 0.4834(4) 0.7234(3) 0.1849(3)
O42_5 O 0.5706(5) 0.7979(7) 0.0470(5)
C39_5 C 0.6060(5) 0.8085(5) 0.0194(5)
H65_5 H 0.6042 0.8391 0.0090
C42_5 C 0.6500(3) 0.8003(3) 0.0494(4)
H66_5 H 0.6522 0.7701 0.0609
C45_5 C 0.6818(4) 0.8103(4) 0.0214(7)
H69_5 H 0.6789 0.8406 0.0104
O46_5 O 0.7320(5) 0.7578(6) 0.0607(6)
O49_5 O 0.4393(6) 0.7680(5) 0.2578(6)
O50_5 O 0.5607(6) 0.7422(6) 0.2320(5)
C46_5 C 0.7313(6) 0.8012(5) 0.0419(6)
H79_5 H 0.7534 0.8035 0.0187
H82_5 H 0.7380 0.8230 0.0645
H95_5 H 0.687862 0.897332 0.110131
O13_5 O 0.6990(4) 0.8620(4) 0.8388(7)
C15_5 C 0.6590(5) 0.8758(4) 0.8194(7)
H22_5 H 0.6655 0.8780 0.7877
C18_5 C 0.6213(5) 0.8484(4) 0.8221(5)
H30_5 H 0.6292 0.8198 0.8090
C21_5 C 0.6140(6) 0.8407(3) 0.8717(6)
H38_5 H 0.6029 0.8679 0.8853
O26_5 O 0.6493(3) 0.8254(3) 0.9364(5)
C24_5 C 0.6558(5) 0.8257(4) 0.8957(8)
H39_5 H 0.6635 0.7958 0.8859
C27_5 C 0.6945(6) 0.8581(6) 0.8835(9)
O27_5 O 0.7438(9) 0.7965(7) 0.8789(13)
C28_5 C 0.7406(10) 0.8430(17) 0.8978(12)
H45_5 H 0.7432 0.8427 0.9298
H48_5 H 0.7633 0.8621 0.8856
O32_5 O 0.6849(3) 0.7766(3) 0.9834(4)
C33_5 C 0.6445(5) 0.7829(3) 0.9603(6)
H53_5 H 0.6427 0.7596 0.9378
O39_5 O 0.5675(4) 0.7849(5) 0.9552(5)
C36_5 C 0.6059(5) 0.7800(8) 0.9860(6)
H59_5 H 0.6047 0.7501 0.9985
O41_5 O 0.5706(5) 0.9530(5) 0.7979(7)
C38_5 C 0.6060(5) 0.9806(5) 0.8085(5)
H64_5 H 0.6042 0.9910 0.8391
O45_5 O 0.6489(2) 0.9179(2) 0.8322(3)
C41_5 C 0.6500(3) 0.9506(4) 0.8003(3)
H67_5 H 0.6522 0.9391 0.7701
C44_5 C 0.6818(4) 0.9786(7) 0.8103(4)
H70_5 H 0.6789 0.9896 0.8406
O47_5 O 0.7320(5) 0.9393(6) 0.7578(6)
C47_5 C 0.7313(6) 0.9581(6) 0.8012(5)
H80_5 H 0.7534 0.9813 0.8035
H83_5 H 0.7380 0.9355 0.8230
H85_5 H 0.687862 0.889869 0.897332
O17_4 O 0.1364(3) 0.8001(6) 0.4105(3)
O22_4 O 0.1905(5) 0.8735(6) 0.4174(4)
O33_6 O 0.1849(3) 0.7234(3) 0.5166(4)
O34_6 O 0.2766(3) 0.8151(3) 0.4834(4)
O49_6 O 0.2320(5) 0.7422(6) 0.4393(6)
O50_6 O 0.2578(6) 0.7680(5) 0.5607(6)
O17_5 O 0.1999(6) 0.1364(3) 0.4105(3)
O22_5 O 0.1265(6) 0.1905(5) 0.4174(4)
O33_7 O 0.2766(3) 0.1849(3) 0.5166(4)
O34_7 O 0.1849(3) 0.2766(3) 0.4834(4)
O49_7 O 0.2578(6) 0.2320(5) 0.4393(6)
O50_7 O 0.2320(5) 0.2578(6) 0.5607(6)
O13_6 O 0.1612(7) 0.1380(4) 0.3010(4)
C15_6 C 0.1806(7) 0.1242(4) 0.3410(5)
H22_6 H 0.2123 0.1220 0.3345
C18_6 C 0.1779(5) 0.1516(4) 0.3787(5)
H30_6 H 0.1910 0.1802 0.3708
C21_6 C 0.1283(6) 0.1593(3) 0.3860(6)
H38_6 H 0.1147 0.1321 0.3971
O26_6 O 0.0636(5) 0.1746(3) 0.3507(3)
C24_6 C 0.1043(8) 0.1743(4) 0.3442(5)
H39_6 H 0.1141 0.2042 0.3365
C27_6 C 0.1165(9) 0.1419(6) 0.3055(6)
O27_6 O 0.1211(13) 0.2035(7) 0.2562(9)
C28_6 C 0.1022(12) 0.1570(17) 0.2594(10)
H45_6 H 0.0702 0.1573 0.2568
H48_6 H 0.1144 0.1379 0.2367
O32_6 O 0.0166(4) 0.2234(3) 0.3151(3)
C33_6 C 0.0397(6) 0.2171(3) 0.3555(5)
H53_6 H 0.0622 0.2404 0.3573
O39_6 O 0.0448(5) 0.2151(5) 0.4325(4)
C36_6 C 0.0140(6) 0.2200(8) 0.3941(5)
H59_6 H 0.0015 0.2499 0.3953
O41_6 O 0.2021(7) 0.0470(5) 0.4294(5)
C38_6 C 0.1915(5) 0.0194(5) 0.3940(5)
H64_6 H 0.1609 0.0090 0.3958
O45_6 O 0.1678(3) 0.0821(2) 0.3511(2)
C41_6 C 0.1997(3) 0.0494(4) 0.3500(3)
H67_6 H 0.2299 0.0609 0.3478
C44_6 C 0.1897(4) 0.0214(7) 0.3182(4)
H70_6 H 0.1594 0.0104 0.3211
O47_6 O 0.2422(6) 0.0607(6) 0.2680(5)
C47_6 C 0.1988(5) 0.0419(6) 0.2687(6)
H80_6 H 0.1965 0.0187 0.2466
H83_6 H 0.1770 0.0645 0.2620
H85_6 H 0.102668 0.110131 0.312138
O12_6 O 0.1380(4) 0.8388(7) 0.3010(4)
C14_6 C 0.1242(4) 0.8194(7) 0.3410(5)
H21_6 H 0.1220 0.7877 0.3345
C17_6 C 0.1516(4) 0.8221(5) 0.3787(5)
H29_6 H 0.1802 0.8090 0.3708
C20_6 C 0.1593(3) 0.8717(6) 0.3860(6)
H37_6 H 0.1321 0.8853 0.3971
O25_6 O 0.1746(3) 0.9364(5) 0.3507(3)
C23_6 C 0.1743(4) 0.8957(8) 0.3442(5)
H40_6 H 0.2042 0.8859 0.3365
C26_6 C 0.1419(6) 0.8835(9) 0.3055(6)
O28_6 O 0.2035(7) 0.8789(13) 0.2562(9)
C29_6 C 0.1570(17) 0.8978(12) 0.2594(10)
H46_6 H 0.1573 0.9298 0.2568
H49_6 H 0.1379 0.8856 0.2367
O31_6 O 0.2234(3) 0.9834(4) 0.3151(3)
C32_6 C 0.2171(3) 0.9603(6) 0.3555(5)
H52_6 H 0.2404 0.9378 0.3573
O38_6 O 0.2151(5) 0.9552(5) 0.4325(4)
C35_6 C 0.2200(8) 0.9860(6) 0.3941(5)
H58_6 H 0.2499 0.9985 0.3953
O40_6 O 0.0470(5) 0.7979(7) 0.4294(5)
C37_6 C 0.0194(5) 0.8085(5) 0.3940(5)
H63_6 H 0.0090 0.8391 0.3958
O44_6 O 0.0821(2) 0.8322(3) 0.3511(2)
C40_6 C 0.0494(4) 0.8003(3) 0.3500(3)
H68_6 H 0.0609 0.7701 0.3478
C43_6 C 0.0214(7) 0.8103(4) 0.3182(4)
H71_6 H 0.0104 0.8406 0.3211
O48_6 O 0.0607(6) 0.7578(6) 0.2680(5)
C48_6 C 0.0419(6) 0.8012(5) 0.2687(6)
H81_6 H 0.0187 0.8035 0.2466
H84_6 H 0.0645 0.8230 0.2620
H87_6 H 0.110131 0.897332 0.312138
O1_6 O 0.8620(4) 0.1612(7) 0.3010(4)
C1_6 C 0.8758(4) 0.1806(7) 0.3410(5)
H1_6 H 0.8780 0.2123 0.3345
C2_6 C 0.8484(4) 0.1779(5) 0.3787(5)
H3_6 H 0.8198 0.1910 0.3708
C3_6 C 0.8407(3) 0.1283(6) 0.3860(6)
H5_6 H 0.8679 0.1147 0.3971
O4_6 O 0.8254(3) 0.0636(5) 0.3507(3)
C4_6 C 0.8257(4) 0.1043(8) 0.3442(5)
H6_6 H 0.7958 0.1141 0.3365
C5_6 C 0.8581(6) 0.1165(9) 0.3055(6)
O5_6 O 0.7965(7) 0.1211(13) 0.2562(9)
C6_6 C 0.8430(17) 0.1022(12) 0.2594(10)
H8_6 H 0.8427 0.0702 0.2568
H9_6 H 0.8621 0.1144 0.2367
O6_6 O 0.7766(3) 0.0166(4) 0.3151(3)
C7_6 C 0.7829(3) 0.0397(6) 0.3555(5)
H10_6 H 0.7596 0.0622 0.3573
O7_6 O 0.7849(5) 0.0448(5) 0.4325(4)
C8_6 C 0.7800(8) 0.0140(6) 0.3941(5)
H12_6 H 0.7501 0.0015 0.3953
O9_6 O 0.9179(2) 0.1678(3) 0.3511(2)
O42_6 O 0.9530(5) 0.2021(7) 0.4294(5)
C39_6 C 0.9806(5) 0.1915(5) 0.3940(5)
H65_6 H 0.9910 0.1609 0.3958
C42_6 C 0.9506(4) 0.1997(3) 0.3500(3)
H66_6 H 0.9391 0.2299 0.3478
C45_6 C 0.9786(7) 0.1897(4) 0.3182(4)
H69_6 H 0.9896 0.1594 0.3211
O46_6 O 0.9393(6) 0.2422(6) 0.2680(5)
C46_6 C 0.9581(6) 0.1988(5) 0.2687(6)
H79_6 H 0.9813 0.1965 0.2466
H82_6 H 0.9355 0.1770 0.2620
H95_6 H 0.889869 0.102668 0.312138
O8_6 O 0.7979(7) 0.9530(5) 0.4294(5)
C9_6 C 0.8085(5) 0.9806(5) 0.3940(5)
H14_6 H 0.8391 0.9910 0.3958
C10_6 C 0.8003(3) 0.9506(4) 0.3500(3)
H15_6 H 0.7701 0.9391 0.3478
C11_6 C 0.8103(4) 0.9786(7) 0.3182(4)
H16_6 H 0.8406 0.9896 0.3211
O10_6 O 0.7578(6) 0.9393(6) 0.2680(5)
C12_6 C 0.8012(5) 0.9581(6) 0.2687(6)
H18_6 H 0.8035 0.9813 0.2466
H19_6 H 0.8230 0.9355 0.2620
O11_6 O 0.8388(7) 0.8620(4) 0.3010(4)
C13_6 C 0.8194(7) 0.8758(4) 0.3410(5)
H20_6 H 0.7877 0.8780 0.3345
C16_6 C 0.8221(5) 0.8484(4) 0.3787(5)
H28_6 H 0.8090 0.8198 0.3708
C19_6 C 0.8717(6) 0.8407(3) 0.3860(6)
H36_6 H 0.8853 0.8679 0.3971
O24_6 O 0.9364(5) 0.8254(3) 0.3507(3)
C22_6 C 0.8957(8) 0.8257(4) 0.3442(5)
H41_6 H 0.8859 0.7958 0.3365
C25_6 C 0.8835(9) 0.8581(6) 0.3055(6)
O29_6 O 0.8789(13) 0.7965(7) 0.2562(9)
C30_6 C 0.8978(12) 0.8430(17) 0.2594(10)
H47_6 H 0.9298 0.8427 0.2568
H50_6 H 0.8856 0.8621 0.2367
O30_6 O 0.9834(4) 0.7766(3) 0.3151(3)
C31_6 C 0.9603(6) 0.7829(3) 0.3555(5)
H51_6 H 0.9378 0.7596 0.3573
O37_6 O 0.9552(5) 0.7849(5) 0.4325(4)
C34_6 C 0.9860(6) 0.7800(8) 0.3941(5)
H57_6 H 0.9985 0.7501 0.3953
O43_6 O 0.8322(3) 0.9179(2) 0.3511(2)
H88_6 H 0.897332 0.889869 0.312138
O1_7 O 0.3388(7) 0.1990(4) 0.3620(4)
C1_7 C 0.3194(7) 0.1590(5) 0.3758(4)
H1_7 H 0.2877 0.1655 0.3780
O2_6 O 0.3001(6) 0.0895(3) 0.3636(3)
C2_7 C 0.3221(5) 0.1213(5) 0.3484(4)
H3_7 H 0.3090 0.1292 0.3198
O3_6 O 0.3735(6) 0.0826(4) 0.3095(5)
C3_7 C 0.3717(6) 0.1140(6) 0.3407(3)
H5_7 H 0.3853 0.1029 0.3679
O4_7 O 0.4364(5) 0.1493(3) 0.3254(3)
C4_7 C 0.3957(8) 0.1558(5) 0.3257(4)
H6_7 H 0.3859 0.1635 0.2958
C5_7 C 0.3835(9) 0.1945(6) 0.3581(6)
O5_7 O 0.3789(13) 0.2438(9) 0.2965(7)
C6_7 C 0.3978(12) 0.2406(10) 0.3430(17)
H8_7 H 0.4298 0.2432 0.3427
H9_7 H 0.3856 0.2633 0.3621
C7_7 C 0.4603(6) 0.1445(5) 0.2829(3)
H10_7 H 0.4378 0.1427 0.2596
O7_7 O 0.4552(5) 0.0675(4) 0.2849(5)
C8_7 C 0.4860(6) 0.1059(5) 0.2800(8)
H12_7 H 0.4985 0.1047 0.2501
O8_7 O 0.5470(5) 0.0706(5) 0.2979(7)
C9_7 C 0.5194(5) 0.1060(5) 0.3085(5)
H14_7 H 0.5090 0.1042 0.3391
O9_7 O 0.3322(3) 0.1489(2) 0.4179(2)
C10_7 C 0.5494(4) 0.1500(3) 0.3003(3)
H15_7 H 0.5609 0.1522 0.2701
C11_7 C 0.5214(7) 0.1818(4) 0.3103(4)
H16_7 H 0.5104 0.1789 0.3406
C12_7 C 0.5419(6) 0.2313(6) 0.3012(5)
H18_7 H 0.5187 0.2534 0.3035
H19_7 H 0.5645 0.2380 0.3230
O11_7 O 0.6380(4) 0.1990(4) 0.3388(7)
O12_7 O 0.6612(7) 0.1990(4) 0.6380(4)
O13_7 O 0.3620(4) 0.1990(4) 0.6612(7)
C13_7 C 0.6242(4) 0.1590(5) 0.3194(7)
C14_7 C 0.6806(7) 0.1590(5) 0.6242(4)
C15_7 C 0.3758(4) 0.1590(5) 0.6806(7)
H20_7 H 0.6220 0.1655 0.2877
H21_7 H 0.7123 0.1655 0.6220
H22_7 H 0.3780 0.1655 0.7123
O14_6 O 0.6364(3) 0.0895(3) 0.3001(6)
O15_4 O 0.6999(6) 0.0895(3) 0.6364(3)
O16_4 O 0.3636(3) 0.0895(3) 0.6999(6)
C16_7 C 0.6516(4) 0.1213(5) 0.3221(5)
C17_7 C 0.6779(5) 0.1213(5) 0.6516(4)
C18_7 C 0.3484(4) 0.1213(5) 0.6779(5)
H28_7 H 0.6802 0.1292 0.3090
H29_7 H 0.6910 0.1292 0.6802
H30_7 H 0.3198 0.1292 0.6910
O19_6 O 0.6905(5) 0.0826(4) 0.3735(6)
O20_4 O 0.6265(6) 0.0826(4) 0.6905(5)
O21_4 O 0.3095(5) 0.0826(4) 0.6265(6)
C19_7 C 0.6593(3) 0.1140(6) 0.3717(6)
C20_7 C 0.6283(6) 0.1140(6) 0.6593(3)
C21_7 C 0.3407(3) 0.1140(6) 0.6283(6)
H36_7 H 0.6321 0.1029 0.3853
H37_7 H 0.6147 0.1029 0.6321
H38_7 H 0.3679 0.1029 0.6147
O24_7 O 0.6746(3) 0.1493(3) 0.4364(5)
O25_7 O 0.5636(5) 0.1493(3) 0.6746(3)
O26_7 O 0.3254(3) 0.1493(3) 0.5636(5)
C22_7 C 0.6743(4) 0.1558(5) 0.3957(8)
C23_7 C 0.6043(8) 0.1558(5) 0.6743(4)
C24_7 C 0.3257(4) 0.1558(5) 0.6043(8)
H39_7 H 0.2958 0.1635 0.6141
H40_7 H 0.6141 0.1635 0.7042
H41_7 H 0.7042 0.1635 0.3859
C25_7 C 0.6419(6) 0.1945(6) 0.3835(9)
C26_7 C 0.6165(9) 0.1945(6) 0.6419(6)
C27_7 C 0.3581(6) 0.1945(6) 0.6165(9)
O27_7 O 0.2965(7) 0.2438(9) 0.6211(13)
O28_7 O 0.6211(13) 0.2438(9) 0.7035(7)
O29_7 O 0.7035(7) 0.2438(9) 0.3789(13)
C28_7 C 0.3430(17) 0.2406(10) 0.6022(12)
C29_7 C 0.6022(12) 0.2406(10) 0.6570(17)
C30_7 C 0.6570(17) 0.2406(10) 0.3978(12)
H45_7 H 0.3427 0.2432 0.5702
H46_7 H 0.5702 0.2432 0.6573
H47_7 H 0.6573 0.2432 0.4298
H48_7 H 0.3621 0.2633 0.6144
H49_7 H 0.6144 0.2633 0.6379
H50_7 H 0.6379 0.2633 0.3856
C31_7 C 0.7171(3) 0.1445(5) 0.4603(6)
C32_7 C 0.5397(6) 0.1445(5) 0.7171(3)
C33_7 C 0.2829(3) 0.1445(5) 0.5397(6)
H51_7 H 0.7404 0.1427 0.4378
H52_7 H 0.5622 0.1427 0.7404
H53_7 H 0.2596 0.1427 0.5622
O37_7 O 0.7151(5) 0.0675(4) 0.4552(5)
O38_7 O 0.5448(5) 0.0675(4) 0.7151(5)
O39_7 O 0.2849(5) 0.0675(4) 0.5448(5)
C34_7 C 0.7200(8) 0.1059(5) 0.4860(6)
C35_7 C 0.5140(6) 0.1059(5) 0.7200(8)
C36_7 C 0.2800(8) 0.1059(5) 0.5140(6)
H57_7 H 0.7499 0.1047 0.4985
H58_7 H 0.5015 0.1047 0.7499
H59_7 H 0.2501 0.1047 0.5015
O40_7 O 0.7021(7) 0.0706(5) 0.5470(5)
O41_7 O 0.4530(5) 0.0706(5) 0.7021(7)
O42_7 O 0.2979(7) 0.0706(5) 0.4530(5)
C37_7 C 0.6915(5) 0.1060(5) 0.5194(5)
C38_7 C 0.4806(5) 0.1060(5) 0.6915(5)
C39_7 C 0.3085(5) 0.1060(5) 0.4806(5)
H63_7 H 0.6609 0.1042 0.5090
H64_7 H 0.4910 0.1042 0.6609
H65_7 H 0.3391 0.1042 0.4910
O43_7 O 0.5821(2) 0.1489(2) 0.3322(3)
O44_7 O 0.6678(3) 0.1489(2) 0.5821(2)
O45_7 O 0.4179(2) 0.1489(2) 0.6678(3)
C40_7 C 0.6997(3) 0.1500(3) 0.5494(4)
C41_7 C 0.4506(4) 0.1500(3) 0.6997(3)
C42_7 C 0.3003(3) 0.1500(3) 0.4506(4)
H66_7 H 0.2701 0.1522 0.4391
H67_7 H 0.4391 0.1522 0.7299
H68_7 H 0.7299 0.1522 0.5609
C43_7 C 0.6897(4) 0.1818(4) 0.5214(7)
C44_7 C 0.4786(7) 0.1818(4) 0.6897(4)
C45_7 C 0.3103(4) 0.1818(4) 0.4786(7)
H69_7 H 0.3406 0.1789 0.4896
H70_7 H 0.4896 0.1789 0.6594
H71_7 H 0.6594 0.1789 0.5104
C46_7 C 0.3012(5) 0.2313(6) 0.4581(6)
C47_7 C 0.4581(6) 0.2313(6) 0.6988(5)
C48_7 C 0.6988(5) 0.2313(6) 0.5419(6)
H79_7 H 0.3035 0.2534 0.4813
H80_7 H 0.4813 0.2534 0.6965
H81_7 H 0.6965 0.2534 0.5187
H82_7 H 0.3230 0.2380 0.4355
H83_7 H 0.4355 0.2380 0.6770
H84_7 H 0.6770 0.2380 0.5645
H85_7 H 0.389869 0.187862 0.602668
H87_7 H 0.602668 0.187862 0.610131
H88_7 H 0.610131 0.187862 0.397332
H95_7 H 0.397332 0.187862 0.389869
O17_6 O 0.3636(3) 0.9105(3) 0.3001(6)
O18_4 O 0.6999(6) 0.9105(3) 0.3636(3)
O22_6 O 0.3095(5) 0.9174(4) 0.3735(6)
O23_4 O 0.6265(6) 0.9174(4) 0.3095(5)
O17_7 O 0.0895(3) 0.3636(3) 0.3001(6)
O18_5 O 0.0895(3) 0.6999(6) 0.3636(3)
O22_7 O 0.0826(4) 0.3095(5) 0.3735(6)
O23_5 O 0.0826(4) 0.6265(6) 0.3095(5)
O1_8 O 0.8010(4) 0.3388(7) 0.3620(4)
C1_8 C 0.8410(5) 0.3194(7) 0.3758(4)
H1_8 H 0.8345 0.2877 0.3780
O2_7 O 0.9105(3) 0.3001(6) 0.3636(3)
C2_8 C 0.8787(5) 0.3221(5) 0.3484(4)
H3_8 H 0.8708 0.3090 0.3198
O3_7 O 0.9174(4) 0.3735(6) 0.3095(5)
C3_8 C 0.8860(6) 0.3717(6) 0.3407(3)
H5_8 H 0.8971 0.3853 0.3679
O4_8 O 0.8507(3) 0.4364(5) 0.3254(3)
C4_8 C 0.8442(5) 0.3957(8) 0.3257(4)
H6_8 H 0.8365 0.3859 0.2958
C5_8 C 0.8055(6) 0.3835(9) 0.3581(6)
O5_8 O 0.7562(9) 0.3789(13) 0.2965(7)
C6_8 C 0.7594(10) 0.3978(12) 0.3430(17)
H8_8 H 0.7568 0.4298 0.3427
H9_8 H 0.7367 0.3856 0.3621
C7_8 C 0.8555(5) 0.4603(6) 0.2829(3)
H10_8 H 0.8573 0.4378 0.2596
O7_8 O 0.9325(4) 0.4552(5) 0.2849(5)
C8_8 C 0.8941(5) 0.4860(6) 0.2800(8)
H12_8 H 0.8953 0.4985 0.2501
O8_8 O 0.9294(5) 0.5470(5) 0.2979(7)
C9_8 C 0.8940(5) 0.5194(5) 0.3085(5)
H14_8 H 0.8958 0.5090 0.3391
O9_8 O 0.8511(2) 0.3322(3) 0.4179(2)
C10_8 C 0.8500(3) 0.5494(4) 0.3003(3)
H15_8 H 0.8478 0.5609 0.2701
C11_8 C 0.8182(4) 0.5214(7) 0.3103(4)
H16_8 H 0.8211 0.5104 0.3406
C12_8 C 0.7687(6) 0.5419(6) 0.3012(5)
H18_8 H 0.7466 0.5187 0.3035
H19_8 H 0.7620 0.5645 0.3230
O11_8 O 0.8010(4) 0.6380(4) 0.3388(7)
O12_8 O 0.8010(4) 0.6612(7) 0.6380(4)
O13_8 O 0.8010(4) 0.3620(4) 0.6612(7)
C13_8 C 0.8410(5) 0.6242(4) 0.3194(7)
C14_8 C 0.8410(5) 0.6806(7) 0.6242(4)
C15_8 C 0.8410(5) 0.3758(4) 0.6806(7)
H20_8 H 0.8345 0.6220 0.2877
H21_8 H 0.8345 0.7123 0.6220
H22_8 H 0.8345 0.3780 0.7123
O14_7 O 0.9105(3) 0.6364(3) 0.3001(6)
O15_5 O 0.9105(3) 0.6999(6) 0.6364(3)
O16_5 O 0.9105(3) 0.3636(3) 0.6999(6)
C16_8 C 0.8787(5) 0.6516(4) 0.3221(5)
C17_8 C 0.8787(5) 0.6779(5) 0.6516(4)
C18_8 C 0.8787(5) 0.3484(4) 0.6779(5)
H28_8 H 0.8708 0.6802 0.3090
H29_8 H 0.8708 0.6910 0.6802
H30_8 H 0.8708 0.3198 0.6910
O19_7 O 0.9174(4) 0.6905(5) 0.3735(6)
O20_5 O 0.9174(4) 0.6265(6) 0.6905(5)
O21_5 O 0.9174(4) 0.3095(5) 0.6265(6)
C19_8 C 0.8860(6) 0.6593(3) 0.3717(6)
C20_8 C 0.8860(6) 0.6283(6) 0.6593(3)
C21_8 C 0.8860(6) 0.3407(3) 0.6283(6)
H36_8 H 0.8971 0.6321 0.3853
H37_8 H 0.8971 0.6147 0.6321
H38_8 H 0.8971 0.3679 0.6147
O24_8 O 0.8507(3) 0.6746(3) 0.4364(5)
O25_8 O 0.8507(3) 0.5636(5) 0.6746(3)
O26_8 O 0.8507(3) 0.3254(3) 0.5636(5)
C22_8 C 0.8442(5) 0.6743(4) 0.3957(8)
C23_8 C 0.8442(5) 0.6043(8) 0.6743(4)
C24_8 C 0.8442(5) 0.3257(4) 0.6043(8)
H39_8 H 0.8365 0.2958 0.6141
H40_8 H 0.8365 0.6141 0.7042
H41_8 H 0.8365 0.7042 0.3859
C25_8 C 0.8055(6) 0.6419(6) 0.3835(9)
C26_8 C 0.8055(6) 0.6165(9) 0.6419(6)
C27_8 C 0.8055(6) 0.3581(6) 0.6165(9)
O27_8 O 0.7562(9) 0.2965(7) 0.6211(13)
O28_8 O 0.7562(9) 0.6211(13) 0.7035(7)
O29_8 O 0.7562(9) 0.7035(7) 0.3789(13)
C28_8 C 0.7594(10) 0.3430(17) 0.6022(12)
C29_8 C 0.7594(10) 0.6022(12) 0.6570(17)
C30_8 C 0.7594(10) 0.6570(17) 0.3978(12)
H45_8 H 0.7568 0.3427 0.5702
H46_8 H 0.7568 0.5702 0.6573
H47_8 H 0.7568 0.6573 0.4298
H48_8 H 0.7367 0.3621 0.6144
H49_8 H 0.7367 0.6144 0.6379
H50_8 H 0.7367 0.6379 0.3856
C31_8 C 0.8555(5) 0.7171(3) 0.4603(6)
C32_8 C 0.8555(5) 0.5397(6) 0.7171(3)
C33_8 C 0.8555(5) 0.2829(3) 0.5397(6)
H51_8 H 0.8573 0.7404 0.4378
H52_8 H 0.8573 0.5622 0.7404
H53_8 H 0.8573 0.2596 0.5622
O37_8 O 0.9325(4) 0.7151(5) 0.4552(5)
O38_8 O 0.9325(4) 0.5448(5) 0.7151(5)
O39_8 O 0.9325(4) 0.2849(5) 0.5448(5)
C34_8 C 0.8941(5) 0.7200(8) 0.4860(6)
C35_8 C 0.8941(5) 0.5140(6) 0.7200(8)
C36_8 C 0.8941(5) 0.2800(8) 0.5140(6)
H57_8 H 0.8953 0.7499 0.4985
H58_8 H 0.8953 0.5015 0.7499
H59_8 H 0.8953 0.2501 0.5015
O40_8 O 0.9294(5) 0.7021(7) 0.5470(5)
O41_8 O 0.9294(5) 0.4530(5) 0.7021(7)
O42_8 O 0.9294(5) 0.2979(7) 0.4530(5)
C37_8 C 0.8940(5) 0.6915(5) 0.5194(5)
C38_8 C 0.8940(5) 0.4806(5) 0.6915(5)
C39_8 C 0.8940(5) 0.3085(5) 0.4806(5)
H63_8 H 0.8958 0.6609 0.5090
H64_8 H 0.8958 0.4910 0.6609
H65_8 H 0.8958 0.3391 0.4910
O43_8 O 0.8511(2) 0.5821(2) 0.3322(3)
O44_8 O 0.8511(2) 0.6678(3) 0.5821(2)
O45_8 O 0.8511(2) 0.4179(2) 0.6678(3)
C40_8 C 0.8500(3) 0.6997(3) 0.5494(4)
C41_8 C 0.8500(3) 0.4506(4) 0.6997(3)
C42_8 C 0.8500(3) 0.3003(3) 0.4506(4)
H66_8 H 0.8478 0.2701 0.4391
H67_8 H 0.8478 0.4391 0.7299
H68_8 H 0.8478 0.7299 0.5609
C43_8 C 0.8182(4) 0.6897(4) 0.5214(7)
C44_8 C 0.8182(4) 0.4786(7) 0.6897(4)
C45_8 C 0.8182(4) 0.3103(4) 0.4786(7)
H69_8 H 0.8211 0.3406 0.4896
H70_8 H 0.8211 0.4896 0.6594
H71_8 H 0.8211 0.6594 0.5104
C46_8 C 0.7687(6) 0.3012(5) 0.4581(6)
C47_8 C 0.7687(6) 0.4581(6) 0.6988(5)
C48_8 C 0.7687(6) 0.6988(5) 0.5419(6)
H79_8 H 0.7466 0.3035 0.4813
H80_8 H 0.7466 0.4813 0.6965
H81_8 H 0.7466 0.6965 0.5187
H82_8 H 0.7620 0.3230 0.4355
H83_8 H 0.7620 0.4355 0.6770
H84_8 H 0.7620 0.6770 0.5645
H85_8 H 0.812138 0.389869 0.602668
H87_8 H 0.812138 0.602668 0.610131
H88_8 H 0.812138 0.610131 0.397332
H95_8 H 0.812138 0.397332 0.389869
O1_9 O 0.3388(7) 0.8010(4) 0.6380(4)
C1_9 C 0.3194(7) 0.8410(5) 0.6242(4)
H1_9 H 0.2877 0.8345 0.6220
O2_8 O 0.3001(6) 0.9105(3) 0.6364(3)
C2_9 C 0.3221(5) 0.8787(5) 0.6516(4)
H3_9 H 0.3090 0.8708 0.6802
O3_8 O 0.3735(6) 0.9174(4) 0.6905(5)
C3_9 C 0.3717(6) 0.8860(6) 0.6593(3)
H5_9 H 0.3853 0.8971 0.6321
O4_9 O 0.4364(5) 0.8507(3) 0.6746(3)
C4_9 C 0.3957(8) 0.8442(5) 0.6743(4)
H6_9 H 0.3859 0.8365 0.7042
C5_9 C 0.3835(9) 0.8055(6) 0.6419(6)
O5_9 O 0.3789(13) 0.7562(9) 0.7035(7)
C6_9 C 0.3978(12) 0.7594(10) 0.6570(17)
H8_9 H 0.4298 0.7568 0.6573
H9_9 H 0.3856 0.7367 0.6379
C7_9 C 0.4603(6) 0.8555(5) 0.7171(3)
H10_9 H 0.4378 0.8573 0.7404
O7_9 O 0.4552(5) 0.9325(4) 0.7151(5)
C8_9 C 0.4860(6) 0.8941(5) 0.7200(8)
H12_9 H 0.4985 0.8953 0.7499
O8_9 O 0.5470(5) 0.9294(5) 0.7021(7)
C9_9 C 0.5194(5) 0.8940(5) 0.6915(5)
H14_9 H 0.5090 0.8958 0.6609
O9_9 O 0.3322(3) 0.8511(2) 0.5821(2)
C10_9 C 0.5494(4) 0.8500(3) 0.6997(3)
H15_9 H 0.5609 0.8478 0.7299
C11_9 C 0.5214(7) 0.8182(4) 0.6897(4)
H16_9 H 0.5104 0.8211 0.6594
C12_9 C 0.5419(6) 0.7687(6) 0.6988(5)
H18_9 H 0.5187 0.7466 0.6965
H19_9 H 0.5645 0.7620 0.6770
O11_9 O 0.6380(4) 0.8010(4) 0.6612(7)
O12_9 O 0.6612(7) 0.8010(4) 0.3620(4)
O13_9 O 0.3620(4) 0.8010(4) 0.3388(7)
C13_9 C 0.6242(4) 0.8410(5) 0.6806(7)
C14_9 C 0.6806(7) 0.8410(5) 0.3758(4)
C15_9 C 0.3758(4) 0.8410(5) 0.3194(7)
H20_9 H 0.6220 0.8345 0.7123
H21_9 H 0.7123 0.8345 0.3780
H22_9 H 0.3780 0.8345 0.2877
O14_8 O 0.6364(3) 0.9105(3) 0.6999(6)
C16_9 C 0.6516(4) 0.8787(5) 0.6779(5)
C17_9 C 0.6779(5) 0.8787(5) 0.3484(4)
C18_9 C 0.3484(4) 0.8787(5) 0.3221(5)
H28_9 H 0.6802 0.8708 0.6910
H29_9 H 0.6910 0.8708 0.3198
H30_9 H 0.3198 0.8708 0.3090
O19_8 O 0.6905(5) 0.9174(4) 0.6265(6)
C19_9 C 0.6593(3) 0.8860(6) 0.6283(6)
C20_9 C 0.6283(6) 0.8860(6) 0.3407(3)
C21_9 C 0.3407(3) 0.8860(6) 0.3717(6)
H36_9 H 0.6321 0.8971 0.6147
H37_9 H 0.6147 0.8971 0.3679
H38_9 H 0.3679 0.8971 0.3853
O24_9 O 0.6746(3) 0.8507(3) 0.5636(5)
O25_9 O 0.5636(5) 0.8507(3) 0.3254(3)
O26_9 O 0.3254(3) 0.8507(3) 0.4364(5)
C22_9 C 0.6743(4) 0.8442(5) 0.6043(8)
C23_9 C 0.6043(8) 0.8442(5) 0.3257(4)
C24_9 C 0.3257(4) 0.8442(5) 0.3957(8)
H39_9 H 0.2958 0.8365 0.3859
H40_9 H 0.6141 0.8365 0.2958
H41_9 H 0.7042 0.8365 0.6141
C25_9 C 0.6419(6) 0.8055(6) 0.6165(9)
C26_9 C 0.6165(9) 0.8055(6) 0.3581(6)
C27_9 C 0.3581(6) 0.8055(6) 0.3835(9)
O27_9 O 0.2965(7) 0.7562(9) 0.3789(13)
O28_9 O 0.6211(13) 0.7562(9) 0.2965(7)
O29_9 O 0.7035(7) 0.7562(9) 0.6211(13)
C28_9 C 0.3430(17) 0.7594(10) 0.3978(12)
C29_9 C 0.6022(12) 0.7594(10) 0.3430(17)
C30_9 C 0.6570(17) 0.7594(10) 0.6022(12)
H45_9 H 0.3427 0.7568 0.4298
H46_9 H 0.5702 0.7568 0.3427
H47_9 H 0.6573 0.7568 0.5702
H48_9 H 0.3621 0.7367 0.3856
H49_9 H 0.6144 0.7367 0.3621
H50_9 H 0.6379 0.7367 0.6144
C31_9 C 0.7171(3) 0.8555(5) 0.5397(6)
C32_9 C 0.5397(6) 0.8555(5) 0.2829(3)
C33_9 C 0.2829(3) 0.8555(5) 0.4603(6)
H51_9 H 0.7404 0.8573 0.5622
H52_9 H 0.5622 0.8573 0.2596
H53_9 H 0.2596 0.8573 0.4378
O37_9 O 0.7151(5) 0.9325(4) 0.5448(5)
O38_9 O 0.5448(5) 0.9325(4) 0.2849(5)
O39_9 O 0.2849(5) 0.9325(4) 0.4552(5)
C34_9 C 0.7200(8) 0.8941(5) 0.5140(6)
C35_9 C 0.5140(6) 0.8941(5) 0.2800(8)
C36_9 C 0.2800(8) 0.8941(5) 0.4860(6)
H57_9 H 0.7499 0.8953 0.5015
H58_9 H 0.5015 0.8953 0.2501
H59_9 H 0.2501 0.8953 0.4985
O40_9 O 0.7021(7) 0.9294(5) 0.4530(5)
O41_9 O 0.4530(5) 0.9294(5) 0.2979(7)
O42_9 O 0.2979(7) 0.9294(5) 0.5470(5)
C37_9 C 0.6915(5) 0.8940(5) 0.4806(5)
C38_9 C 0.4806(5) 0.8940(5) 0.3085(5)
C39_9 C 0.3085(5) 0.8940(5) 0.5194(5)
H63_9 H 0.6609 0.8958 0.4910
H64_9 H 0.4910 0.8958 0.3391
H65_9 H 0.3391 0.8958 0.5090
O43_9 O 0.5821(2) 0.8511(2) 0.6678(3)
O44_9 O 0.6678(3) 0.8511(2) 0.4179(2)
O45_9 O 0.4179(2) 0.8511(2) 0.3322(3)
C40_9 C 0.6997(3) 0.8500(3) 0.4506(4)
C41_9 C 0.4506(4) 0.8500(3) 0.3003(3)
C42_9 C 0.3003(3) 0.8500(3) 0.5494(4)
H66_9 H 0.2701 0.8478 0.5609
H67_9 H 0.4391 0.8478 0.2701
H68_9 H 0.7299 0.8478 0.4391
C43_9 C 0.6897(4) 0.8182(4) 0.4786(7)
C44_9 C 0.4786(7) 0.8182(4) 0.3103(4)
C45_9 C 0.3103(4) 0.8182(4) 0.5214(7)
H69_9 H 0.3406 0.8211 0.5104
H70_9 H 0.4896 0.8211 0.3406
H71_9 H 0.6594 0.8211 0.4896
C46_9 C 0.3012(5) 0.7687(6) 0.5419(6)
C47_9 C 0.4581(6) 0.7687(6) 0.3012(5)
C48_9 C 0.6988(5) 0.7687(6) 0.4581(6)
H79_9 H 0.3035 0.7466 0.5187
H80_9 H 0.4813 0.7466 0.3035
H81_9 H 0.6965 0.7466 0.4813
H82_9 H 0.3230 0.7620 0.5645
H83_9 H 0.4355 0.7620 0.3230
H84_9 H 0.6770 0.7620 0.4355
H85_9 H 0.389869 0.812138 0.397332
H87_9 H 0.602668 0.812138 0.389869
H88_9 H 0.610131 0.812138 0.602668
H95_9 H 0.397332 0.812138 0.610131
O1_10 O 0.3620(4) 0.3388(7) 0.1990(4)
C1_10 C 0.3758(4) 0.3194(7) 0.1590(5)
H1_10 H 0.3780 0.2877 0.1655
O2_9 O 0.3636(3) 0.3001(6) 0.0895(3)
C2_10 C 0.3484(4) 0.3221(5) 0.1213(5)
H3_10 H 0.3198 0.3090 0.1292
O3_9 O 0.3095(5) 0.3735(6) 0.0826(4)
C3_10 C 0.3407(3) 0.3717(6) 0.1140(6)
H5_10 H 0.3679 0.3853 0.1029
O4_10 O 0.3254(3) 0.4364(5) 0.1493(3)
C4_10 C 0.3257(4) 0.3957(8) 0.1558(5)
H6_10 H 0.2958 0.3859 0.1635
C5_10 C 0.3581(6) 0.3835(9) 0.1945(6)
O5_10 O 0.2965(7) 0.3789(13) 0.2438(9)
C6_10 C 0.3430(17) 0.3978(12) 0.2406(10)
H8_10 H 0.3427 0.4298 0.2432
H9_10 H 0.3621 0.3856 0.2633
C7_10 C 0.2829(3) 0.4603(6) 0.1445(5)
H10_10 H 0.2596 0.4378 0.1427
O7_10 O 0.2849(5) 0.4552(5) 0.0675(4)
C8_10 C 0.2800(8) 0.4860(6) 0.1059(5)
H12_10 H 0.2501 0.4985 0.1047
O8_10 O 0.2979(7) 0.5470(5) 0.0706(5)
C9_10 C 0.3085(5) 0.5194(5) 0.1060(5)
H14_10 H 0.3391 0.5090 0.1042
O9_10 O 0.4179(2) 0.3322(3) 0.1489(2)
C10_10 C 0.3003(3) 0.5494(4) 0.1500(3)
H15_10 H 0.2701 0.5609 0.1522
C11_10 C 0.3103(4) 0.5214(7) 0.1818(4)
H16_10 H 0.3406 0.5104 0.1789
C12_10 C 0.3012(5) 0.5419(6) 0.2313(6)
H18_10 H 0.3035 0.5187 0.2534
H19_10 H 0.3230 0.5645 0.2380
O11_10 O 0.3388(7) 0.6380(4) 0.1990(4)
O12_10 O 0.6380(4) 0.6612(7) 0.1990(4)
O13_10 O 0.6612(7) 0.3620(4) 0.1990(4)
C13_10 C 0.3194(7) 0.6242(4) 0.1590(5)
C14_10 C 0.6242(4) 0.6806(7) 0.1590(5)
C15_10 C 0.6806(7) 0.3758(4) 0.1590(5)
H20_10 H 0.2877 0.6220 0.1655
H21_10 H 0.6220 0.7123 0.1655
H22_10 H 0.7123 0.3780 0.1655
O14_9 O 0.3001(6) 0.6364(3) 0.0895(3)
O15_6 O 0.6364(3) 0.6999(6) 0.0895(3)
O16_6 O 0.6999(6) 0.3636(3) 0.0895(3)
C16_10 C 0.3221(5) 0.6516(4) 0.1213(5)
C17_10 C 0.6516(4) 0.6779(5) 0.1213(5)
C18_10 C 0.6779(5) 0.3484(4) 0.1213(5)
H28_10 H 0.3090 0.6802 0.1292
H29_10 H 0.6802 0.6910 0.1292
H30_10 H 0.6910 0.3198 0.1292
O19_9 O 0.3735(6) 0.6905(5) 0.0826(4)
O20_6 O 0.6905(5) 0.6265(6) 0.0826(4)
O21_6 O 0.6265(6) 0.3095(5) 0.0826(4)
C19_10 C 0.3717(6) 0.6593(3) 0.1140(6)
C20_10 C 0.6593(3) 0.6283(6) 0.1140(6)
C21_10 C 0.6283(6) 0.3407(3) 0.1140(6)
H36_10 H 0.3853 0.6321 0.1029
H37_10 H 0.6321 0.6147 0.1029
H38_10 H 0.6147 0.3679 0.1029
O24_10 O 0.4364(5) 0.6746(3) 0.1493(3)
O25_10 O 0.6746(3) 0.5636(5) 0.1493(3)
O26_10 O 0.5636(5) 0.3254(3) 0.1493(3)
C22_10 C 0.3957(8) 0.6743(4) 0.1558(5)
C23_10 C 0.6743(4) 0.6043(8) 0.1558(5)
C24_10 C 0.6043(8) 0.3257(4) 0.1558(5)
H39_10 H 0.6141 0.2958 0.1635
H40_10 H 0.7042 0.6141 0.1635
H41_10 H 0.3859 0.7042 0.1635
C25_10 C 0.3835(9) 0.6419(6) 0.1945(6)
C26_10 C 0.6419(6) 0.6165(9) 0.1945(6)
C27_10 C 0.6165(9) 0.3581(6) 0.1945(6)
O27_10 O 0.6211(13) 0.2965(7) 0.2438(9)
O28_10 O 0.7035(7) 0.6211(13) 0.2438(9)
O29_10 O 0.3789(13) 0.7035(7) 0.2438(9)
C28_10 C 0.6022(12) 0.3430(17) 0.2406(10)
C29_10 C 0.6570(17) 0.6022(12) 0.2406(10)
C30_10 C 0.3978(12) 0.6570(17) 0.2406(10)
H45_10 H 0.5702 0.3427 0.2432
H46_10 H 0.6573 0.5702 0.2432
H47_10 H 0.4298 0.6573 0.2432
H48_10 H 0.6144 0.3621 0.2633
H49_10 H 0.6379 0.6144 0.2633
H50_10 H 0.3856 0.6379 0.2633
C31_10 C 0.4603(6) 0.7171(3) 0.1445(5)
C32_10 C 0.7171(3) 0.5397(6) 0.1445(5)
C33_10 C 0.5397(6) 0.2829(3) 0.1445(5)
H51_10 H 0.4378 0.7404 0.1427
H52_10 H 0.7404 0.5622 0.1427
H53_10 H 0.5622 0.2596 0.1427
O37_10 O 0.4552(5) 0.7151(5) 0.0675(4)
O38_10 O 0.7151(5) 0.5448(5) 0.0675(4)
O39_10 O 0.5448(5) 0.2849(5) 0.0675(4)
C34_10 C 0.4860(6) 0.7200(8) 0.1059(5)
C35_10 C 0.7200(8) 0.5140(6) 0.1059(5)
C36_10 C 0.5140(6) 0.2800(8) 0.1059(5)
H57_10 H 0.4985 0.7499 0.1047
H58_10 H 0.7499 0.5015 0.1047
H59_10 H 0.5015 0.2501 0.1047
O40_10 O 0.5470(5) 0.7021(7) 0.0706(5)
O41_10 O 0.7021(7) 0.4530(5) 0.0706(5)
O42_10 O 0.4530(5) 0.2979(7) 0.0706(5)
C37_10 C 0.5194(5) 0.6915(5) 0.1060(5)
C38_10 C 0.6915(5) 0.4806(5) 0.1060(5)
C39_10 C 0.4806(5) 0.3085(5) 0.1060(5)
H63_10 H 0.5090 0.6609 0.1042
H64_10 H 0.6609 0.4910 0.1042
H65_10 H 0.4910 0.3391 0.1042
O43_10 O 0.3322(3) 0.5821(2) 0.1489(2)
O44_10 O 0.5821(2) 0.6678(3) 0.1489(2)
O45_10 O 0.6678(3) 0.4179(2) 0.1489(2)
C40_10 C 0.5494(4) 0.6997(3) 0.1500(3)
C41_10 C 0.6997(3) 0.4506(4) 0.1500(3)
C42_10 C 0.4506(4) 0.3003(3) 0.1500(3)
H66_10 H 0.4391 0.2701 0.1522
H67_10 H 0.7299 0.4391 0.1522
H68_10 H 0.5609 0.7299 0.1522
C43_10 C 0.5214(7) 0.6897(4) 0.1818(4)
C44_10 C 0.6897(4) 0.4786(7) 0.1818(4)
C45_10 C 0.4786(7) 0.3103(4) 0.1818(4)
H69_10 H 0.4896 0.3406 0.1789
H70_10 H 0.6594 0.4896 0.1789
H71_10 H 0.5104 0.6594 0.1789
C46_10 C 0.4581(6) 0.3012(5) 0.2313(6)
C47_10 C 0.6988(5) 0.4581(6) 0.2313(6)
C48_10 C 0.5419(6) 0.6988(5) 0.2313(6)
H79_10 H 0.4813 0.3035 0.2534
H80_10 H 0.6965 0.4813 0.2534
H81_10 H 0.5187 0.6965 0.2534
H82_10 H 0.4355 0.3230 0.2380
H83_10 H 0.6770 0.4355 0.2380
H84_10 H 0.5645 0.6770 0.2380
H85_10 H 0.602668 0.389869 0.187862
H87_10 H 0.610131 0.602668 0.187862
H88_10 H 0.397332 0.610131 0.187862
H95_10 H 0.389869 0.397332 0.187862
O17_8 O 0.3001(6) 0.3636(3) 0.9105(3)
O18_6 O 0.3636(3) 0.6999(6) 0.9105(3)
O22_8 O 0.3735(6) 0.3095(5) 0.9174(4)
O23_6 O 0.3095(5) 0.6265(6) 0.9174(4)
O1_11 O 0.1990(4) 0.3388(7) 0.6380(4)
C1_11 C 0.1590(5) 0.3194(7) 0.6242(4)
H1_11 H 0.1655 0.2877 0.6220
O2_10 O 0.0895(3) 0.3001(6) 0.6364(3)
C2_11 C 0.1213(5) 0.3221(5) 0.6516(4)
H3_11 H 0.1292 0.3090 0.6802
O3_10 O 0.0826(4) 0.3735(6) 0.6905(5)
C3_11 C 0.1140(6) 0.3717(6) 0.6593(3)
H5_11 H 0.1029 0.3853 0.6321
O4_11 O 0.1493(3) 0.4364(5) 0.6746(3)
C4_11 C 0.1558(5) 0.3957(8) 0.6743(4)
H6_11 H 0.1635 0.3859 0.7042
C5_11 C 0.1945(6) 0.3835(9) 0.6419(6)
O5_11 O 0.2438(9) 0.3789(13) 0.7035(7)
C6_11 C 0.2406(10) 0.3978(12) 0.6570(17)
H8_11 H 0.2432 0.4298 0.6573
H9_11 H 0.2633 0.3856 0.6379
C7_11 C 0.1445(5) 0.4603(6) 0.7171(3)
H10_11 H 0.1427 0.4378 0.7404
O7_11 O 0.0675(4) 0.4552(5) 0.7151(5)
C8_11 C 0.1059(5) 0.4860(6) 0.7200(8)
H12_11 H 0.1047 0.4985 0.7499
O8_11 O 0.0706(5) 0.5470(5) 0.7021(7)
C9_11 C 0.1060(5) 0.5194(5) 0.6915(5)
H14_11 H 0.1042 0.5090 0.6609
O9_11 O 0.1489(2) 0.3322(3) 0.5821(2)
C10_11 C 0.1500(3) 0.5494(4) 0.6997(3)
H15_11 H 0.1522 0.5609 0.7299
C11_11 C 0.1818(4) 0.5214(7) 0.6897(4)
H16_11 H 0.1789 0.5104 0.6594
C12_11 C 0.2313(6) 0.5419(6) 0.6988(5)
H18_11 H 0.2534 0.5187 0.6965
H19_11 H 0.2380 0.5645 0.6770
O11_11 O 0.1990(4) 0.6380(4) 0.6612(7)
O12_11 O 0.1990(4) 0.6612(7) 0.3620(4)
O13_11 O 0.1990(4) 0.3620(4) 0.3388(7)
C13_11 C 0.1590(5) 0.6242(4) 0.6806(7)
C14_11 C 0.1590(5) 0.6806(7) 0.3758(4)
C15_11 C 0.1590(5) 0.3758(4) 0.3194(7)
H20_11 H 0.1655 0.6220 0.7123
H21_11 H 0.1655 0.7123 0.3780
H22_11 H 0.1655 0.3780 0.2877
O14_10 O 0.0895(3) 0.6364(3) 0.6999(6)
C16_11 C 0.1213(5) 0.6516(4) 0.6779(5)
C17_11 C 0.1213(5) 0.6779(5) 0.3484(4)
C18_11 C 0.1213(5) 0.3484(4) 0.3221(5)
H28_11 H 0.1292 0.6802 0.6910
H29_11 H 0.1292 0.6910 0.3198
H30_11 H 0.1292 0.3198 0.3090
O19_10 O 0.0826(4) 0.6905(5) 0.6265(6)
C19_11 C 0.1140(6) 0.6593(3) 0.6283(6)
C20_11 C 0.1140(6) 0.6283(6) 0.3407(3)
C21_11 C 0.1140(6) 0.3407(3) 0.3717(6)
H36_11 H 0.1029 0.6321 0.6147
H37_11 H 0.1029 0.6147 0.3679
H38_11 H 0.1029 0.3679 0.3853
O24_11 O 0.1493(3) 0.6746(3) 0.5636(5)
O25_11 O 0.1493(3) 0.5636(5) 0.3254(3)
O26_11 O 0.1493(3) 0.3254(3) 0.4364(5)
C22_11 C 0.1558(5) 0.6743(4) 0.6043(8)
C23_11 C 0.1558(5) 0.6043(8) 0.3257(4)
C24_11 C 0.1558(5) 0.3257(4) 0.3957(8)
H39_11 H 0.1635 0.2958 0.3859
H40_11 H 0.1635 0.6141 0.2958
H41_11 H 0.1635 0.7042 0.6141
C25_11 C 0.1945(6) 0.6419(6) 0.6165(9)
C26_11 C 0.1945(6) 0.6165(9) 0.3581(6)
C27_11 C 0.1945(6) 0.3581(6) 0.3835(9)
O27_11 O 0.2438(9) 0.2965(7) 0.3789(13)
O28_11 O 0.2438(9) 0.6211(13) 0.2965(7)
O29_11 O 0.2438(9) 0.7035(7) 0.6211(13)
C28_11 C 0.2406(10) 0.3430(17) 0.3978(12)
C29_11 C 0.2406(10) 0.6022(12) 0.3430(17)
C30_11 C 0.2406(10) 0.6570(17) 0.6022(12)
H45_11 H 0.2432 0.3427 0.4298
H46_11 H 0.2432 0.5702 0.3427
H47_11 H 0.2432 0.6573 0.5702
H48_11 H 0.2633 0.3621 0.3856
H49_11 H 0.2633 0.6144 0.3621
H50_11 H 0.2633 0.6379 0.6144
C31_11 C 0.1445(5) 0.7171(3) 0.5397(6)
C32_11 C 0.1445(5) 0.5397(6) 0.2829(3)
C33_11 C 0.1445(5) 0.2829(3) 0.4603(6)
H51_11 H 0.1427 0.7404 0.5622
H52_11 H 0.1427 0.5622 0.2596
H53_11 H 0.1427 0.2596 0.4378
O37_11 O 0.0675(4) 0.7151(5) 0.5448(5)
O38_11 O 0.0675(4) 0.5448(5) 0.2849(5)
O39_11 O 0.0675(4) 0.2849(5) 0.4552(5)
C34_11 C 0.1059(5) 0.7200(8) 0.5140(6)
C35_11 C 0.1059(5) 0.5140(6) 0.2800(8)
C36_11 C 0.1059(5) 0.2800(8) 0.4860(6)
H57_11 H 0.1047 0.7499 0.5015
H58_11 H 0.1047 0.5015 0.2501
H59_11 H 0.1047 0.2501 0.4985
O40_11 O 0.0706(5) 0.7021(7) 0.4530(5)
O41_11 O 0.0706(5) 0.4530(5) 0.2979(7)
O42_11 O 0.0706(5) 0.2979(7) 0.5470(5)
C37_11 C 0.1060(5) 0.6915(5) 0.4806(5)
C38_11 C 0.1060(5) 0.4806(5) 0.3085(5)
C39_11 C 0.1060(5) 0.3085(5) 0.5194(5)
H63_11 H 0.1042 0.6609 0.4910
H64_11 H 0.1042 0.4910 0.3391
H65_11 H 0.1042 0.3391 0.5090
O43_11 O 0.1489(2) 0.5821(2) 0.6678(3)
O44_11 O 0.1489(2) 0.6678(3) 0.4179(2)
O45_11 O 0.1489(2) 0.4179(2) 0.3322(3)
C40_11 C 0.1500(3) 0.6997(3) 0.4506(4)
C41_11 C 0.1500(3) 0.4506(4) 0.3003(3)
C42_11 C 0.1500(3) 0.3003(3) 0.5494(4)
H66_11 H 0.1522 0.2701 0.5609
H67_11 H 0.1522 0.4391 0.2701
H68_11 H 0.1522 0.7299 0.4391
C43_11 C 0.1818(4) 0.6897(4) 0.4786(7)
C44_11 C 0.1818(4) 0.4786(7) 0.3103(4)
C45_11 C 0.1818(4) 0.3103(4) 0.5214(7)
H69_11 H 0.1789 0.3406 0.5104
H70_11 H 0.1789 0.4896 0.3406
H71_11 H 0.1789 0.6594 0.4896
C46_11 C 0.2313(6) 0.3012(5) 0.5419(6)
C47_11 C 0.2313(6) 0.4581(6) 0.3012(5)
C48_11 C 0.2313(6) 0.6988(5) 0.4581(6)
H79_11 H 0.2534 0.3035 0.5187
H80_11 H 0.2534 0.4813 0.3035
H81_11 H 0.2534 0.6965 0.4813
H82_11 H 0.2380 0.3230 0.5645
H83_11 H 0.2380 0.4355 0.3230
H84_11 H 0.2380 0.6770 0.4355
H85_11 H 0.187862 0.389869 0.397332
H87_11 H 0.187862 0.602668 0.389869
H88_11 H 0.187862 0.610131 0.602668
H95_11 H 0.187862 0.397332 0.610131
O17_9 O 0.6364(3) 0.3001(6) 0.9105(3)
O22_9 O 0.6905(5) 0.3735(6) 0.9174(4)
O17_10 O 0.6999(6) 0.6364(3) 0.9105(3)
O22_10 O 0.6265(6) 0.6905(5) 0.9174(4)
O1_12 O 0.3620(4) 0.6612(7) 0.8010(4)
C1_12 C 0.3758(4) 0.6806(7) 0.8410(5)
H1_12 H 0.3780 0.7123 0.8345
C2_12 C 0.3484(4) 0.6779(5) 0.8787(5)
H3_12 H 0.3198 0.6910 0.8708
C3_12 C 0.3407(3) 0.6283(6) 0.8860(6)
H5_12 H 0.3679 0.6147 0.8971
O4_12 O 0.3254(3) 0.5636(5) 0.8507(3)
C4_12 C 0.3257(4) 0.6043(8) 0.8442(5)
H6_12 H 0.2958 0.6141 0.8365
C5_12 C 0.3581(6) 0.6165(9) 0.8055(6)
O5_12 O 0.2965(7) 0.6211(13) 0.7562(9)
C6_12 C 0.3430(17) 0.6022(12) 0.7594(10)
H8_12 H 0.3427 0.5702 0.7568
H9_12 H 0.3621 0.6144 0.7367
C7_12 C 0.2829(3) 0.5397(6) 0.8555(5)
H10_12 H 0.2596 0.5622 0.8573
O7_12 O 0.2849(5) 0.5448(5) 0.9325(4)
C8_12 C 0.2800(8) 0.5140(6) 0.8941(5)
H12_12 H 0.2501 0.5015 0.8953
O8_12 O 0.2979(7) 0.4530(5) 0.9294(5)
C9_12 C 0.3085(5) 0.4806(5) 0.8940(5)
H14_12 H 0.3391 0.4910 0.8958
O9_12 O 0.4179(2) 0.6678(3) 0.8511(2)
C10_12 C 0.3003(3) 0.4506(4) 0.8500(3)
H15_12 H 0.2701 0.4391 0.8478
C11_12 C 0.3103(4) 0.4786(7) 0.8182(4)
H16_12 H 0.3406 0.4896 0.8211
C12_12 C 0.3012(5) 0.4581(6) 0.7687(6)
H18_12 H 0.3035 0.4813 0.7466
H19_12 H 0.3230 0.4355 0.7620
O11_12 O 0.3388(7) 0.3620(4) 0.8010(4)
O12_12 O 0.6380(4) 0.3388(7) 0.8010(4)
O13_12 O 0.6612(7) 0.6380(4) 0.8010(4)
C13_12 C 0.3194(7) 0.3758(4) 0.8410(5)
C14_12 C 0.6242(4) 0.3194(7) 0.8410(5)
C15_12 C 0.6806(7) 0.6242(4) 0.8410(5)
H20_12 H 0.2877 0.3780 0.8345
H21_12 H 0.6220 0.2877 0.8345
H22_12 H 0.7123 0.6220 0.8345
C16_12 C 0.3221(5) 0.3484(4) 0.8787(5)
C17_12 C 0.6516(4) 0.3221(5) 0.8787(5)
C18_12 C 0.6779(5) 0.6516(4) 0.8787(5)
H28_12 H 0.3090 0.3198 0.8708
H29_12 H 0.6802 0.3090 0.8708
H30_12 H 0.6910 0.6802 0.8708
C19_12 C 0.3717(6) 0.3407(3) 0.8860(6)
C20_12 C 0.6593(3) 0.3717(6) 0.8860(6)
C21_12 C 0.6283(6) 0.6593(3) 0.8860(6)
H36_12 H 0.3853 0.3679 0.8971
H37_12 H 0.6321 0.3853 0.8971
H38_12 H 0.6147 0.6321 0.8971
O24_12 O 0.4364(5) 0.3254(3) 0.8507(3)
O25_12 O 0.6746(3) 0.4364(5) 0.8507(3)
O26_12 O 0.5636(5) 0.6746(3) 0.8507(3)
C22_12 C 0.3957(8) 0.3257(4) 0.8442(5)
C23_12 C 0.6743(4) 0.3957(8) 0.8442(5)
C24_12 C 0.6043(8) 0.6743(4) 0.8442(5)
H39_12 H 0.6141 0.7042 0.8365
H40_12 H 0.7042 0.3859 0.8365
H41_12 H 0.3859 0.2958 0.8365
C25_12 C 0.3835(9) 0.3581(6) 0.8055(6)
C26_12 C 0.6419(6) 0.3835(9) 0.8055(6)
C27_12 C 0.6165(9) 0.6419(6) 0.8055(6)
O27_12 O 0.6211(13) 0.7035(7) 0.7562(9)
O28_12 O 0.7035(7) 0.3789(13) 0.7562(9)
O29_12 O 0.3789(13) 0.2965(7) 0.7562(9)
C28_12 C 0.6022(12) 0.6570(17) 0.7594(10)
C29_12 C 0.6570(17) 0.3978(12) 0.7594(10)
C30_12 C 0.3978(12) 0.3430(17) 0.7594(10)
H45_12 H 0.5702 0.6573 0.7568
H46_12 H 0.6573 0.4298 0.7568
H47_12 H 0.4298 0.3427 0.7568
H48_12 H 0.6144 0.6379 0.7367
H49_12 H 0.6379 0.3856 0.7367
H50_12 H 0.3856 0.3621 0.7367
C31_12 C 0.4603(6) 0.2829(3) 0.8555(5)
C32_12 C 0.7171(3) 0.4603(6) 0.8555(5)
C33_12 C 0.5397(6) 0.7171(3) 0.8555(5)
H51_12 H 0.4378 0.2596 0.8573
H52_12 H 0.7404 0.4378 0.8573
H53_12 H 0.5622 0.7404 0.8573
O37_12 O 0.4552(5) 0.2849(5) 0.9325(4)
O38_12 O 0.7151(5) 0.4552(5) 0.9325(4)
O39_12 O 0.5448(5) 0.7151(5) 0.9325(4)
C34_12 C 0.4860(6) 0.2800(8) 0.8941(5)
C35_12 C 0.7200(8) 0.4860(6) 0.8941(5)
C36_12 C 0.5140(6) 0.7200(8) 0.8941(5)
H57_12 H 0.4985 0.2501 0.8953
H58_12 H 0.7499 0.4985 0.8953
H59_12 H 0.5015 0.7499 0.8953
O40_12 O 0.5470(5) 0.2979(7) 0.9294(5)
O41_12 O 0.7021(7) 0.5470(5) 0.9294(5)
O42_12 O 0.4530(5) 0.7021(7) 0.9294(5)
C37_12 C 0.5194(5) 0.3085(5) 0.8940(5)
C38_12 C 0.6915(5) 0.5194(5) 0.8940(5)
C39_12 C 0.4806(5) 0.6915(5) 0.8940(5)
H63_12 H 0.5090 0.3391 0.8958
H64_12 H 0.6609 0.5090 0.8958
H65_12 H 0.4910 0.6609 0.8958
O43_12 O 0.3322(3) 0.4179(2) 0.8511(2)
O44_12 O 0.5821(2) 0.3322(3) 0.8511(2)
O45_12 O 0.6678(3) 0.5821(2) 0.8511(2)
C40_12 C 0.5494(4) 0.3003(3) 0.8500(3)
C41_12 C 0.6997(3) 0.5494(4) 0.8500(3)
C42_12 C 0.4506(4) 0.6997(3) 0.8500(3)
H66_12 H 0.4391 0.7299 0.8478
H67_12 H 0.7299 0.5609 0.8478
H68_12 H 0.5609 0.2701 0.8478
C43_12 C 0.5214(7) 0.3103(4) 0.8182(4)
C44_12 C 0.6897(4) 0.5214(7) 0.8182(4)
C45_12 C 0.4786(7) 0.6897(4) 0.8182(4)
H69_12 H 0.4896 0.6594 0.8211
H70_12 H 0.6594 0.5104 0.8211
H71_12 H 0.5104 0.3406 0.8211
C46_12 C 0.4581(6) 0.6988(5) 0.7687(6)
C47_12 C 0.6988(5) 0.5419(6) 0.7687(6)
C48_12 C 0.5419(6) 0.3012(5) 0.7687(6)
H79_12 H 0.4813 0.6965 0.7466
H80_12 H 0.6965 0.5187 0.7466
H81_12 H 0.5187 0.3035 0.7466
H82_12 H 0.4355 0.6770 0.7620
H83_12 H 0.6770 0.5645 0.7620
H84_12 H 0.5645 0.3230 0.7620
H85_12 H 0.602668 0.610131 0.812138
H87_12 H 0.610131 0.397332 0.812138
H88_12 H 0.397332 0.389869 0.812138
H95_12 H 0.389869 0.602668 0.812138
O53 O -0.0000 0.5000 0.657(2)
O53_2 O 1.0000 0.5000 0.657(2)
O53_3 O 0.5000 0.0000 0.657(2)
O53_4 O 0.5000 1.0000 0.657(2)
O53_5 O -0.0000 0.5000 0.343(2)
O53_6 O 1.0000 0.5000 0.343(2)
O53_7 O 0.657(2) -0.0000 0.5000
O53_8 O 0.657(2) 1.0000 0.5000
O53_9 O 0.5000 0.0000 0.343(2)
O53_10 O 0.5000 1.0000 0.343(2)
O53_11 O -0.0000 0.657(2) 0.5000
O53_12 O 1.0000 0.657(2) 0.5000
O53_13 O 0.343(2) -0.0000 0.5000
O53_14 O 0.343(2) 1.0000 0.5000
O53_15 O -0.0000 0.343(2) 0.5000
O53_16 O 1.0000 0.343(2) 0.5000
O53_17 O 0.5000 0.657(2) 0.0000
O53_18 O 0.5000 0.657(2) 1.0000
O53_19 O 0.343(2) 0.5000 0.0000
O53_20 O 0.343(2) 0.5000 1.0000
O53_21 O 0.657(2) 0.5000 0.0000
O53_22 O 0.657(2) 0.5000 1.0000
O53_23 O 0.5000 0.343(2) 0.0000
O53_24 O 0.5000 0.343(2) 1.0000
O53_25 O 0.5000 -0.0000 0.157(2)
O53_26 O 0.5000 1.0000 0.157(2)
O53_27 O 0.0000 0.5000 0.157(2)
O53_28 O 1.0000 0.5000 0.157(2)
O53_29 O 0.5000 0.0000 0.843(2)
O53_30 O 0.5000 1.0000 0.843(2)
O53_31 O 0.157(2) 0.5000 -0.0000
O53_32 O 0.157(2) 0.5000 1.0000
O53_33 O -0.0000 0.5000 0.843(2)
O53_34 O 1.0000 0.5000 0.843(2)
O53_35 O 0.5000 0.157(2) -0.0000
O53_36 O 0.5000 0.157(2) 1.0000
O53_37 O 0.843(2) 0.5000 -0.0000
O53_38 O 0.843(2) 0.5000 1.0000
O53_39 O 0.5000 0.843(2) -0.0000
O53_40 O 0.5000 0.843(2) 1.0000
O53_41 O -0.0000 0.157(2) 0.5000
O53_42 O 1.0000 0.157(2) 0.5000
O53_43 O 0.843(2) -0.0000 0.5000
O53_44 O 0.843(2) 1.0000 0.5000
O53_45 O 0.157(2) -0.0000 0.5000
O53_46 O 0.157(2) 1.0000 0.5000
O53_47 O -0.0000 0.843(2) 0.5000
O53_48 O 1.0000 0.843(2) 0.5000
loop_
_geom_bond_atom_site_label_1
_geom_bond_atom_site_label_2
_geom_bond_site_symmetry_1
_geom_bond_site_symmetry_2
Cs5 O15 1_555 1_555
Cs6 O31 1_555 1_555
O12 C14 1_555 1_555
C14 H21 1_555 1_555
C17 C14 1_555 1_555
H29 C17 1_555 1_555
O20 Cs5 1_555 1_555
C20 C17 1_555 1_555
H37 C20 1_555 1_555
O25 C23 1_555 1_555
C23 C20 1_555 1_555
H40 C23 1_555 1_555
C26 O12 1_555 1_555
C29 C26 1_555 1_555
H46 C29 1_555 1_555
H49 C29 1_555 1_555
O31 C32 1_555 1_555
C32 O25 1_555 1_555
H52 C32 1_555 1_555
C35 C32 1_555 1_555
H58 C35 1_555 1_555
H63 C37 1_555 1_555
O44 C14 1_555 1_555
C40 C37 1_555 1_555
H68 C40 1_555 1_555
H71 C43 1_555 1_555
O48 Cs4 1_555 1_555
C48 C43 1_555 1_555
H81 C48 1_555 1_555
H84 C48 1_555 1_555
O15 C17 1_555 1_555
O20 C20 1_555 1_555
C23 C26 1_555 1_555
O28 C29 1_555 1_555
O38 C35 1_555 1_555
O40 C37 1_555 1_555
O44 C40 1_555 1_555
C40 C43 1_555 1_555
O48 C48 1_555 1_555
C26 H87 1_555 1_555
H14 C9 1_555 1_555
C10 C9 1_555 1_555
H15 C10 1_555 1_555
H16 C11 1_555 1_555
C12 C11 1_555 1_555
H18 C12 1_555 1_555
H19 C12 1_555 1_555
Cs2 O14 1_555 1_555
Cs4_2 O30 1_555 1_555
O11 C13 1_555 1_555
C13 H20 1_555 1_555
O18 Cs2 1_555 1_555
C16 C13 1_555 1_555
H28 C16 1_555 1_555
O19 Cs2 1_555 1_555
O23 Cs2 1_555 1_555
C19 C16 1_555 1_555
H36 C19 1_555 1_555
O24 C22 1_555 1_555
C22 C19 1_555 1_555
H41 C22 1_555 1_555
C25 O11 1_555 1_555
C30 C25 1_555 1_555
H47 C30 1_555 1_555
H50 C30 1_555 1_555
O30 C31 1_555 1_555
O35 Cs2 1_555 1_555
O36 Cs2 1_555 1_555
C31 O24 1_555 1_555
H51 C31 1_555 1_555
C34 C31 1_555 1_555
H57 C34 1_555 1_555
O43 C10 1_555 1_555
O51 Cs2 1_555 1_555
O52 Cs2 1_555 1_555
O8 C9 1_555 1_555
C10 C11 1_555 1_555
O10 C12 1_555 1_555
O10 Cs3 1_555 1_555
C13 O43 1_555 1_555
O14 C16 1_555 1_555
O19 C19 1_555 1_555
C22 C25 1_555 1_555
O29 C30 1_555 1_555
O37 C34 1_555 1_555
C25 H88 1_555 1_555
Cs7 O16 1_555 1_555
Cs8 O32 1_555 1_555
O13 C15 1_555 1_555
C15 H22 1_555 1_555
C18 C15 1_555 1_555
H30 C18 1_555 1_555
O21 Cs7 1_555 1_555
C21 C18 1_555 1_555
H38 C21 1_555 1_555
O26 C24 1_555 1_555
C24 C21 1_555 1_555
H39 C24 1_555 1_555
C27 O13 1_555 1_555
C28 C27 1_555 1_555
H45 C28 1_555 1_555
H48 C28 1_555 1_555
O32 C33 1_555 1_555
C33 O26 1_555 1_555
H53 C33 1_555 1_555
C36 C33 1_555 1_555
H59 C36 1_555 1_555
H64 C38 1_555 1_555
O45 C15 1_555 1_555
C41 C38 1_555 1_555
H67 C41 1_555 1_555
H70 C44 1_555 1_555
O47 Cs6_2 1_555 1_555
C47 C44 1_555 1_555
H80 C47 1_555 1_555
H83 C47 1_555 1_555
O16 C18 1_555 1_555
O21 C21 1_555 1_555
C24 C27 1_555 1_555
O27 C28 1_555 1_555
O39 C36 1_555 1_555
O41 C38 1_555 1_555
O45 C41 1_555 1_555
C41 C44 1_555 1_555
O47 C47 1_555 1_555
C27 H85 1_555 1_555
Cs1 O2 1_555 1_555
O1 C1 1_555 1_555
C1 H1 1_555 1_555
C2 C1 1_555 1_555
H3 C2 1_555 1_555
O3 Cs1 1_555 1_555
C3 C2 1_555 1_555
H5 C3 1_555 1_555
O4 C4 1_555 1_555
C4 C3 1_555 1_555
H6 C4 1_555 1_555
C5 O1 1_555 1_555
C6 C5 1_555 1_555
H8 C6 1_555 1_555
H9 C6 1_555 1_555
O6 C7 1_555 1_555
C7 O4 1_555 1_555
H10 C7 1_555 1_555
C8 C7 1_555 1_555
H12 C8 1_555 1_555
O9 C1 1_555 1_555
Cs3_2 O6 1_555 1_555
O17 Cs1 1_555 1_555
O22 Cs1 1_555 1_555
O33 Cs1 1_555 1_555
O34 Cs1 1_555 1_555
H65 C39 1_555 1_555
C42 O9 1_555 1_555
H66 C42 1_555 1_555
H69 C45 1_555 1_555
O46 Cs8_2 1_555 1_555
O49 Cs1 1_555 1_555
O50 Cs1 1_555 1_555
C46 C45 1_555 1_555
H79 C46 1_555 1_555
H82 C46 1_555 1_555
O2 C2 1_555 1_555
O3 C3 1_555 1_555
C4 C5 1_555 1_555
O5 C6 1_555 1_555
O7 C8 1_555 1_555
O42 C39 1_555 1_555
C39 C42 1_555 1_555
C42 C45 1_555 1_555
O46 C46 1_555 1_555
C5 H95 1_555 1_555
Cs5_2 O15_2 1_555 1_555
Cs6_3 O31_2 1_555 1_555
O12_2 C14_2 1_555 1_555
C14_2 H21_2 1_555 1_555
C17_2 C14_2 1_555 1_555
H29_2 C17_2 1_555 1_555
O20_2 Cs5_2 1_555 1_555
C20_2 C17_2 1_555 1_555
H37_2 C20_2 1_555 1_555
O25_2 C23_2 1_555 1_555
C23_2 C20_2 1_555 1_555
H40_2 C23_2 1_555 1_555
C26_2 O12_2 1_555 1_555
C29_2 C26_2 1_555 1_555
H46_2 C29_2 1_555 1_555
H49_2 C29_2 1_555 1_555
O31_2 C32_2 1_555 1_555
C32_2 O25_2 1_555 1_555
H52_2 C32_2 1_555 1_555
C35_2 C32_2 1_555 1_555
H58_2 C35_2 1_555 1_555
H63_2 C37_2 1_555 1_555
O44_2 C14_2 1_555 1_555
C40_2 C37_2 1_555 1_555
H68_2 C40_2 1_555 1_555
H71_2 C43_2 1_555 1_555
O48_2 Cs4_3 1_555 1_555
C48_2 C43_2 1_555 1_555
H81_2 C48_2 1_555 1_555
H84_2 C48_2 1_555 1_555
O15_2 C17_2 1_555 1_555
O20_2 C20_2 1_555 1_555
C23_2 C26_2 1_555 1_555
O28_2 C29_2 1_555 1_555
O38_2 C35_2 1_555 1_555
O40_2 C37_2 1_555 1_555
O44_2 C40_2 1_555 1_555
C40_2 C43_2 1_555 1_555
O48_2 C48_2 1_555 1_555
C26_2 H87_2 1_555 1_555
H14_2 C9_2 1_555 1_555
C10_2 C9_2 1_555 1_555
H15_2 C10_2 1_555 1_555
H16_2 C11_2 1_555 1_555
C12_2 C11_2 1_555 1_555
H18_2 C12_2 1_555 1_555
H19_2 C12_2 1_555 1_555
Cs2_2 O14_2 1_555 1_555
Cs4_4 O30_2 1_555 1_555
O11_2 C13_2 1_555 1_555
C13_2 H20_2 1_555 1_555
O18_2 Cs2_2 1_555 1_555
C16_2 C13_2 1_555 1_555
H28_2 C16_2 1_555 1_555
O19_2 Cs2_2 1_555 1_555
O23_2 Cs2_2 1_555 1_555
C19_2 C16_2 1_555 1_555
H36_2 C19_2 1_555 1_555
O24_2 C22_2 1_555 1_555
C22_2 C19_2 1_555 1_555
H41_2 C22_2 1_555 1_555
C25_2 O11_2 1_555 1_555
C30_2 C25_2 1_555 1_555
H47_2 C30_2 1_555 1_555
H50_2 C30_2 1_555 1_555
O30_2 C31_2 1_555 1_555
O35_2 Cs2_2 1_555 1_555
O36_2 Cs2_2 1_555 1_555
C31_2 O24_2 1_555 1_555
H51_2 C31_2 1_555 1_555
C34_2 C31_2 1_555 1_555
H57_2 C34_2 1_555 1_555
O43_2 C10_2 1_555 1_555
O51_2 Cs2_2 1_555 1_555
O52_2 Cs2_2 1_555 1_555
O8_2 C9_2 1_555 1_555
C10_2 C11_2 1_555 1_555
O10_2 C12_2 1_555 1_555
O10_2 Cs3_3 1_555 1_555
C13_2 O43_2 1_555 1_555
O14_2 C16_2 1_555 1_555
O19_2 C19_2 1_555 1_555
C22_2 C25_2 1_555 1_555
O29_2 C30_2 1_555 1_555
O37_2 C34_2 1_555 1_555
C25_2 H88_2 1_555 1_555
Cs7_2 O16_2 1_555 1_555
Cs4 O32_2 1_555 1_555
O13_2 C15_2 1_555 1_555
C15_2 H22_2 1_555 1_555
C18_2 C15_2 1_555 1_555
H30_2 C18_2 1_555 1_555
O21_2 Cs7_2 1_555 1_555
C21_2 C18_2 1_555 1_555
H38_2 C21_2 1_555 1_555
O26_2 C24_2 1_555 1_555
C24_2 C21_2 1_555 1_555
H39_2 C24_2 1_555 1_555
C27_2 O13_2 1_555 1_555
C28_2 C27_2 1_555 1_555
H45_2 C28_2 1_555 1_555
H48_2 C28_2 1_555 1_555
O32_2 C33_2 1_555 1_555
C33_2 O26_2 1_555 1_555
H53_2 C33_2 1_555 1_555
C36_2 C33_2 1_555 1_555
H59_2 C36_2 1_555 1_555
H64_2 C38_2 1_555 1_555
O45_2 C15_2 1_555 1_555
C41_2 C38_2 1_555 1_555
H67_2 C41_2 1_555 1_555
H70_2 C44_2 1_555 1_555
O47_2 Cs6_4 1_555 1_555
C47_2 C44_2 1_555 1_555
H80_2 C47_2 1_555 1_555
H83_2 C47_2 1_555 1_555
O16_2 C18_2 1_555 1_555
O21_2 C21_2 1_555 1_555
C24_2 C27_2 1_555 1_555
O27_2 C28_2 1_555 1_555
O39_2 C36_2 1_555 1_555
O41_2 C38_2 1_555 1_555
O45_2 C41_2 1_555 1_555
C41_2 C44_2 1_555 1_555
O47_2 C47_2 1_555 1_555
C27_2 H85_2 1_555 1_555
Cs1_2 O2_2 1_555 1_555
O1_2 C1_2 1_555 1_555
C1_2 H1_2 1_555 1_555
C2_2 C1_2 1_555 1_555
H3_2 C2_2 1_555 1_555
O3_2 Cs1_2 1_555 1_555
C3_2 C2_2 1_555 1_555
H5_2 C3_2 1_555 1_555
O4_2 C4_2 1_555 1_555
C4_2 C3_2 1_555 1_555
H6_2 C4_2 1_555 1_555
C5_2 O1_2 1_555 1_555
C6_2 C5_2 1_555 1_555
H8_2 C6_2 1_555 1_555
H9_2 C6_2 1_555 1_555
O6_2 C7_2 1_555 1_555
C7_2 O4_2 1_555 1_555
H10_2 C7_2 1_555 1_555
C8_2 C7_2 1_555 1_555
H12_2 C8_2 1_555 1_555
O9_2 C1_2 1_555 1_555
Cs3_4 O6_2 1_555 1_555
O17_2 Cs1_2 1_555 1_555
O22_2 Cs1_2 1_555 1_555
O33_2 Cs1_2 1_555 1_555
O34_2 Cs1_2 1_555 1_555
H65_2 C39_2 1_555 1_555
C42_2 O9_2 1_555 1_555
H66_2 C42_2 1_555 1_555
H69_2 C45_2 1_555 1_555
O46_2 Cs4_2 1_555 1_555
O49_2 Cs1_2 1_555 1_555
O50_2 Cs1_2 1_555 1_555
C46_2 C45_2 1_555 1_555
H79_2 C46_2 1_555 1_555
H82_2 C46_2 1_555 1_555
O2_2 C2_2 1_555 1_555
O3_2 C3_2 1_555 1_555
C4_2 C5_2 1_555 1_555
O5_2 C6_2 1_555 1_555
O7_2 C8_2 1_555 1_555
O42_2 C39_2 1_555 1_555
C39_2 C42_2 1_555 1_555
C42_2 C45_2 1_555 1_555
O46_2 C46_2 1_555 1_555
C5_2 H95_2 1_555 1_555
H14_3 C9_3 1_555 1_555
C10_3 C9_3 1_555 1_555
H15_3 C10_3 1_555 1_555
H16_3 C11_3 1_555 1_555
C12_3 C11_3 1_555 1_555
H18_3 C12_3 1_555 1_555
H19_3 C12_3 1_555 1_555
Cs5 O14_3 1_555 1_555
Cs4_3 O30_3 1_555 1_555
O11_3 C13_3 1_555 1_555
C13_3 H20_3 1_555 1_555
C16_3 C13_3 1_555 1_555
H28_3 C16_3 1_555 1_555
O19_3 Cs5 1_555 1_555
C19_3 C16_3 1_555 1_555
H36_3 C19_3 1_555 1_555
O24_3 C22_3 1_555 1_555
C22_3 C19_3 1_555 1_555
H41_3 C22_3 1_555 1_555
C25_3 O11_3 1_555 1_555
C30_3 C25_3 1_555 1_555
H47_3 C30_3 1_555 1_555
H50_3 C30_3 1_555 1_555
O30_3 C31_3 1_555 1_555
O35_3 Cs5 1_555 1_555
O36_3 Cs5 1_555 1_555
C31_3 O24_3 1_555 1_555
H51_3 C31_3 1_555 1_555
C34_3 C31_3 1_555 1_555
H57_3 C34_3 1_555 1_555
O43_3 C10_3 1_555 1_555
O51_3 Cs5 1_555 1_555
O52_3 Cs5 1_555 1_555
O8_3 C9_3 1_555 1_555
C10_3 C11_3 1_555 1_555
O10_3 C12_3 1_555 1_555
O10_3 Cs3_5 1_555 1_555
C13_3 O43_3 1_555 1_555
O14_3 C16_3 1_555 1_555
O19_3 C19_3 1_555 1_555
C22_3 C25_3 1_555 1_555
O29_3 C30_3 1_555 1_555
O37_3 C34_3 1_555 1_555
C25_3 H88_3 1_555 1_555
Cs6_5 O31_3 1_555 1_555
O12_3 C14_3 1_555 1_555
C14_3 H21_3 1_555 1_555
C17_3 C14_3 1_555 1_555
H29_3 C17_3 1_555 1_555
C20_3 C17_3 1_555 1_555
H37_3 C20_3 1_555 1_555
O25_3 C23_3 1_555 1_555
C23_3 C20_3 1_555 1_555
H40_3 C23_3 1_555 1_555
C26_3 O12_3 1_555 1_555
C29_3 C26_3 1_555 1_555
H46_3 C29_3 1_555 1_555
H49_3 C29_3 1_555 1_555
O31_3 C32_3 1_555 1_555
C32_3 O25_3 1_555 1_555
H52_3 C32_3 1_555 1_555
C35_3 C32_3 1_555 1_555
H58_3 C35_3 1_555 1_555
H63_3 C37_3 1_555 1_555
O44_3 C14_3 1_555 1_555
C40_3 C37_3 1_555 1_555
H68_3 C40_3 1_555 1_555
H71_3 C43_3 1_555 1_555
O48_3 Cs4_4 1_555 1_555
C48_3 C43_3 1_555 1_555
H81_3 C48_3 1_555 1_555
H84_3 C48_3 1_555 1_555
O18 C17_3 1_555 1_555
O23 C20_3 1_555 1_555
C23_3 C26_3 1_555 1_555
O28_3 C29_3 1_555 1_555
O38_3 C35_3 1_555 1_555
O40_3 C37_3 1_555 1_555
O44_3 C40_3 1_555 1_555
C40_3 C43_3 1_555 1_555
O48_3 C48_3 1_555 1_555
C26_3 H87_3 1_555 1_555
Cs7 O2_3 1_555 1_555
O1_3 C1_3 1_555 1_555
C1_3 H1_3 1_555 1_555
C2_3 C1_3 1_555 1_555
H3_3 C2_3 1_555 1_555
O3_3 Cs7 1_555 1_555
C3_3 C2_3 1_555 1_555
H5_3 C3_3 1_555 1_555
O4_3 C4_3 1_555 1_555
C4_3 C3_3 1_555 1_555
H6_3 C4_3 1_555 1_555
C5_3 O1_3 1_555 1_555
C6_3 C5_3 1_555 1_555
H8_3 C6_3 1_555 1_555
H9_3 C6_3 1_555 1_555
O6_3 C7_3 1_555 1_555
C7_3 O4_3 1_555 1_555
H10_3 C7_3 1_555 1_555
C8_3 C7_3 1_555 1_555
H12_3 C8_3 1_555 1_555
O9_3 C1_3 1_555 1_555
Cs3_6 O6_3 1_555 1_555
O33_3 Cs7 1_555 1_555
O34_3 Cs7 1_555 1_555
H65_3 C39_3 1_555 1_555
C42_3 O9_3 1_555 1_555
H66_3 C42_3 1_555 1_555
H69_3 C45_3 1_555 1_555
O46_3 Cs8_3 1_555 1_555
O49_3 Cs7 1_555 1_555
O50_3 Cs7 1_555 1_555
C46_3 C45_3 1_555 1_555
H79_3 C46_3 1_555 1_555
H82_3 C46_3 1_555 1_555
O2_3 C2_3 1_555 1_555
O3_3 C3_3 1_555 1_555
C4_3 C5_3 1_555 1_555
O5_3 C6_3 1_555 1_555
O7_3 C8_3 1_555 1_555
O42_3 C39_3 1_555 1_555
C39_3 C42_3 1_555 1_555
C42_3 C45_3 1_555 1_555
O46_3 C46_3 1_555 1_555
C5_3 H95_3 1_555 1_555
Cs8_4 O32_3 1_555 1_555
O13_3 C15_3 1_555 1_555
C15_3 H22_3 1_555 1_555
C18_3 C15_3 1_555 1_555
H30_3 C18_3 1_555 1_555
C21_3 C18_3 1_555 1_555
H38_3 C21_3 1_555 1_555
O26_3 C24_3 1_555 1_555
C24_3 C21_3 1_555 1_555
H39_3 C24_3 1_555 1_555
C27_3 O13_3 1_555 1_555
C28_3 C27_3 1_555 1_555
H45_3 C28_3 1_555 1_555
H48_3 C28_3 1_555 1_555
O32_3 C33_3 1_555 1_555
C33_3 O26_3 1_555 1_555
H53_3 C33_3 1_555 1_555
C36_3 C33_3 1_555 1_555
H59_3 C36_3 1_555 1_555
H64_3 C38_3 1_555 1_555
O45_3 C15_3 1_555 1_555
C41_3 C38_3 1_555 1_555
H67_3 C41_3 1_555 1_555
H70_3 C44_3 1_555 1_555
O47_3 Cs6_6 1_555 1_555
C47_3 C44_3 1_555 1_555
H80_3 C47_3 1_555 1_555
H83_3 C47_3 1_555 1_555
O17 C18_3 1_555 1_555
O22 C21_3 1_555 1_555
C24_3 C27_3 1_555 1_555
O27_3 C28_3 1_555 1_555
O39_3 C36_3 1_555 1_555
O41_3 C38_3 1_555 1_555
O45_3 C41_3 1_555 1_555
C41_3 C44_3 1_555 1_555
O47_3 C47_3 1_555 1_555
C27_3 H85_3 1_555 1_555
Cs5_3 O15_3 1_555 1_555
Cs3_3 O31_4 1_555 1_555
O12_4 C14_4 1_555 1_555
C14_4 H21_4 1_555 1_555
C17_4 C14_4 1_555 1_555
H29_4 C17_4 1_555 1_555
O20_3 Cs5_3 1_555 1_555
C20_4 C17_4 1_555 1_555
H37_4 C20_4 1_555 1_555
O25_4 C23_4 1_555 1_555
C23_4 C20_4 1_555 1_555
H40_4 C23_4 1_555 1_555
C26_4 O12_4 1_555 1_555
C29_4 C26_4 1_555 1_555
H46_4 C29_4 1_555 1_555
H49_4 C29_4 1_555 1_555
O31_4 C32_4 1_555 1_555
C32_4 O25_4 1_555 1_555
H52_4 C32_4 1_555 1_555
C35_4 C32_4 1_555 1_555
H58_4 C35_4 1_555 1_555
H63_4 C37_4 1_555 1_555
O44_4 C14_4 1_555 1_555
C40_4 C37_4 1_555 1_555
H68_4 C40_4 1_555 1_555
H71_4 C43_4 1_555 1_555
O48_4 Cs6_5 1_555 1_555
C48_4 C43_4 1_555 1_555
H81_4 C48_4 1_555 1_555
H84_4 C48_4 1_555 1_555
O15_3 C17_4 1_555 1_555
O20_3 C20_4 1_555 1_555
C23_4 C26_4 1_555 1_555
O28_4 C29_4 1_555 1_555
O38_4 C35_4 1_555 1_555
O40_4 C37_4 1_555 1_555
O44_4 C40_4 1_555 1_555
C40_4 C43_4 1_555 1_555
O48_4 C48_4 1_555 1_555
C26_4 H87_4 1_555 1_555
Cs7_3 O16_3 1_555 1_555
Cs3 O32_4 1_555 1_555
O13_4 C15_4 1_555 1_555
C15_4 H22_4 1_555 1_555
C18_4 C15_4 1_555 1_555
H30_4 C18_4 1_555 1_555
O21_3 Cs7_3 1_555 1_555
C21_4 C18_4 1_555 1_555
H38_4 C21_4 1_555 1_555
O26_4 C24_4 1_555 1_555
C24_4 C21_4 1_555 1_555
H39_4 C24_4 1_555 1_555
C27_4 O13_4 1_555 1_555
C28_4 C27_4 1_555 1_555
H45_4 C28_4 1_555 1_555
H48_4 C28_4 1_555 1_555
O32_4 C33_4 1_555 1_555
C33_4 O26_4 1_555 1_555
H53_4 C33_4 1_555 1_555
C36_4 C33_4 1_555 1_555
H59_4 C36_4 1_555 1_555
H64_4 C38_4 1_555 1_555
O45_4 C15_4 1_555 1_555
C41_4 C38_4 1_555 1_555
H67_4 C41_4 1_555 1_555
H70_4 C44_4 1_555 1_555
O47_4 Cs3_4 1_555 1_555
C47_4 C44_4 1_555 1_555
H80_4 C47_4 1_555 1_555
H83_4 C47_4 1_555 1_555
O16_3 C18_4 1_555 1_555
O21_3 C21_4 1_555 1_555
C24_4 C27_4 1_555 1_555
O27_4 C28_4 1_555 1_555
O39_4 C36_4 1_555 1_555
O41_4 C38_4 1_555 1_555
O45_4 C41_4 1_555 1_555
C41_4 C44_4 1_555 1_555
O47_4 C47_4 1_555 1_555
C27_4 H85_4 1_555 1_555
H14_4 C9_4 1_555 1_555
C10_4 C9_4 1_555 1_555
H15_4 C10_4 1_555 1_555
H16_4 C11_4 1_555 1_555
C12_4 C11_4 1_555 1_555
H18_4 C12_4 1_555 1_555
H19_4 C12_4 1_555 1_555
Cs2_3 O14_4 1_555 1_555
Cs6_6 O30_4 1_555 1_555
O11_4 C13_4 1_555 1_555
C13_4 H20_4 1_555 1_555
O18_3 Cs2_3 1_555 1_555
C16_4 C13_4 1_555 1_555
H28_4 C16_4 1_555 1_555
O19_4 Cs2_3 1_555 1_555
O23_3 Cs2_3 1_555 1_555
C19_4 C16_4 1_555 1_555
H36_4 C19_4 1_555 1_555
O24_4 C22_4 1_555 1_555
C22_4 C19_4 1_555 1_555
H41_4 C22_4 1_555 1_555
C25_4 O11_4 1_555 1_555
C30_4 C25_4 1_555 1_555
H47_4 C30_4 1_555 1_555
H50_4 C30_4 1_555 1_555
O30_4 C31_4 1_555 1_555
O35_4 Cs2_3 1_555 1_555
O36_4 Cs2_3 1_555 1_555
C31_4 O24_4 1_555 1_555
H51_4 C31_4 1_555 1_555
C34_4 C31_4 1_555 1_555
H57_4 C34_4 1_555 1_555
O43_4 C10_4 1_555 1_555
O51_4 Cs2_3 1_555 1_555
O52_4 Cs2_3 1_555 1_555
O8_4 C9_4 1_555 1_555
C10_4 C11_4 1_555 1_555
O10_4 C12_4 1_555 1_555
O10_4 Cs3_7 1_555 1_555
C13_4 O43_4 1_555 1_555
O14_4 C16_4 1_555 1_555
O19_4 C19_4 1_555 1_555
C22_4 C25_4 1_555 1_555
O29_4 C30_4 1_555 1_555
O37_4 C34_4 1_555 1_555
C25_4 H88_4 1_555 1_555
Cs1_3 O2_4 1_555 1_555
O1_4 C1_4 1_555 1_555
C1_4 H1_4 1_555 1_555
C2_4 C1_4 1_555 1_555
H3_4 C2_4 1_555 1_555
O3_4 Cs1_3 1_555 1_555
C3_4 C2_4 1_555 1_555
H5_4 C3_4 1_555 1_555
O4_4 C4_4 1_555 1_555
C4_4 C3_4 1_555 1_555
H6_4 C4_4 1_555 1_555
C5_4 O1_4 1_555 1_555
C6_4 C5_4 1_555 1_555
H8_4 C6_4 1_555 1_555
H9_4 C6_4 1_555 1_555
O6_4 C7_4 1_555 1_555
C7_4 O4_4 1_555 1_555
H10_4 C7_4 1_555 1_555
C8_4 C7_4 1_555 1_555
H12_4 C8_4 1_555 1_555
O9_4 C1_4 1_555 1_555
Cs3_8 O6_4 1_555 1_555
O17_3 Cs1_3 1_555 1_555
O22_3 Cs1_3 1_555 1_555
O33_4 Cs1_3 1_555 1_555
O34_4 Cs1_3 1_555 1_555
H65_4 C39_4 1_555 1_555
C42_4 O9_4 1_555 1_555
H66_4 C42_4 1_555 1_555
H69_4 C45_4 1_555 1_555
O46_4 Cs3_2 1_555 1_555
O49_4 Cs1_3 1_555 1_555
O50_4 Cs1_3 1_555 1_555
C46_4 C45_4 1_555 1_555
H79_4 C46_4 1_555 1_555
H82_4 C46_4 1_555 1_555
O2_4 C2_4 1_555 1_555
O3_4 C3_4 1_555 1_555
C4_4 C5_4 1_555 1_555
O5_4 C6_4 1_555 1_555
O7_4 C8_4 1_555 1_555
O42_4 C39_4 1_555 1_555
C39_4 C42_4 1_555 1_555
C42_4 C45_4 1_555 1_555
O46_4 C46_4 1_555 1_555
C5_4 H95_4 1_555 1_555
H14_5 C9_5 1_555 1_555
C10_5 C9_5 1_555 1_555
H15_5 C10_5 1_555 1_555
H16_5 C11_5 1_555 1_555
C12_5 C11_5 1_555 1_555
H18_5 C12_5 1_555 1_555
H19_5 C12_5 1_555 1_555
Cs5_2 O14_5 1_555 1_555
Cs8_3 O30_5 1_555 1_555
O11_5 C13_5 1_555 1_555
C13_5 H20_5 1_555 1_555
C16_5 C13_5 1_555 1_555
H28_5 C16_5 1_555 1_555
O19_5 Cs5_2 1_555 1_555
C19_5 C16_5 1_555 1_555
H36_5 C19_5 1_555 1_555
O24_5 C22_5 1_555 1_555
C22_5 C19_5 1_555 1_555
H41_5 C22_5 1_555 1_555
C25_5 O11_5 1_555 1_555
C30_5 C25_5 1_555 1_555
H47_5 C30_5 1_555 1_555
H50_5 C30_5 1_555 1_555
O30_5 C31_5 1_555 1_555
O35_5 Cs5_2 1_555 1_555
O36_5 Cs5_2 1_555 1_555
C31_5 O24_5 1_555 1_555
H51_5 C31_5 1_555 1_555
C34_5 C31_5 1_555 1_555
H57_5 C34_5 1_555 1_555
O43_5 C10_5 1_555 1_555
O51_5 Cs5_2 1_555 1_555
O52_5 Cs5_2 1_555 1_555
O8_5 C9_5 1_555 1_555
C10_5 C11_5 1_555 1_555
O10_5 C12_5 1_555 1_555
O10_5 Cs3_9 1_555 1_555
C13_5 O43_5 1_555 1_555
O14_5 C16_5 1_555 1_555
O19_5 C19_5 1_555 1_555
C22_5 C25_5 1_555 1_555
O29_5 C30_5 1_555 1_555
O37_5 C34_5 1_555 1_555
C25_5 H88_5 1_555 1_555
Cs3_7 O31_5 1_555 1_555
O12_5 C14_5 1_555 1_555
C14_5 H21_5 1_555 1_555
C17_5 C14_5 1_555 1_555
H29_5 C17_5 1_555 1_555
C20_5 C17_5 1_555 1_555
H37_5 C20_5 1_555 1_555
O25_5 C23_5 1_555 1_555
C23_5 C20_5 1_555 1_555
H40_5 C23_5 1_555 1_555
C26_5 O12_5 1_555 1_555
C29_5 C26_5 1_555 1_555
H46_5 C29_5 1_555 1_555
H49_5 C29_5 1_555 1_555
O31_5 C32_5 1_555 1_555
C32_5 O25_5 1_555 1_555
H52_5 C32_5 1_555 1_555
C35_5 C32_5 1_555 1_555
H58_5 C35_5 1_555 1_555
H63_5 C37_5 1_555 1_555
O44_5 C14_5 1_555 1_555
C40_5 C37_5 1_555 1_555
H68_5 C40_5 1_555 1_555
H71_5 C43_5 1_555 1_555
O48_5 Cs8_4 1_555 1_555
C48_5 C43_5 1_555 1_555
H81_5 C48_5 1_555 1_555
H84_5 C48_5 1_555 1_555
O18_2 C17_5 1_555 1_555
O23_2 C20_5 1_555 1_555
C23_5 C26_5 1_555 1_555
O28_5 C29_5 1_555 1_555
O38_5 C35_5 1_555 1_555
O40_5 C37_5 1_555 1_555
O44_5 C40_5 1_555 1_555
C40_5 C43_5 1_555 1_555
O48_5 C48_5 1_555 1_555
C26_5 H87_5 1_555 1_555
Cs7_2 O2_5 1_555 1_555
O1_5 C1_5 1_555 1_555
C1_5 H1_5 1_555 1_555
C2_5 C1_5 1_555 1_555
H3_5 C2_5 1_555 1_555
O3_5 Cs7_2 1_555 1_555
C3_5 C2_5 1_555 1_555
H5_5 C3_5 1_555 1_555
O4_5 C4_5 1_555 1_555
C4_5 C3_5 1_555 1_555
H6_5 C4_5 1_555 1_555
C5_5 O1_5 1_555 1_555
C6_5 C5_5 1_555 1_555
H8_5 C6_5 1_555 1_555
H9_5 C6_5 1_555 1_555
O6_5 C7_5 1_555 1_555
C7_5 O4_5 1_555 1_555
H10_5 C7_5 1_555 1_555
C8_5 C7_5 1_555 1_555
H12_5 C8_5 1_555 1_555
O9_5 C1_5 1_555 1_555
Cs3_10 O6_5 1_555 1_555
O33_5 Cs7_2 1_555 1_555
O34_5 Cs7_2 1_555 1_555
H65_5 C39_5 1_555 1_555
C42_5 O9_5 1_555 1_555
H66_5 C42_5 1_555 1_555
H69_5 C45_5 1_555 1_555
O46_5 Cs8 1_555 1_555
O49_5 Cs7_2 1_555 1_555
O50_5 Cs7_2 1_555 1_555
C46_5 C45_5 1_555 1_555
H79_5 C46_5 1_555 1_555
H82_5 C46_5 1_555 1_555
O2_5 C2_5 1_555 1_555
O3_5 C3_5 1_555 1_555
C4_5 C5_5 1_555 1_555
O5_5 C6_5 1_555 1_555
O7_5 C8_5 1_555 1_555
O42_5 C39_5 1_555 1_555
C39_5 C42_5 1_555 1_555
C42_5 C45_5 1_555 1_555
O46_5 C46_5 1_555 1_555
C5_5 H95_5 1_555 1_555
Cs8_2 O32_5 1_555 1_555
O13_5 C15_5 1_555 1_555
C15_5 H22_5 1_555 1_555
C18_5 C15_5 1_555 1_555
H30_5 C18_5 1_555 1_555
C21_5 C18_5 1_555 1_555
H38_5 C21_5 1_555 1_555
O26_5 C24_5 1_555 1_555
C24_5 C21_5 1_555 1_555
H39_5 C24_5 1_555 1_555
C27_5 O13_5 1_555 1_555
C28_5 C27_5 1_555 1_555
H45_5 C28_5 1_555 1_555
H48_5 C28_5 1_555 1_555
O32_5 C33_5 1_555 1_555
C33_5 O26_5 1_555 1_555
H53_5 C33_5 1_555 1_555
C36_5 C33_5 1_555 1_555
H59_5 C36_5 1_555 1_555
H64_5 C38_5 1_555 1_555
O45_5 C15_5 1_555 1_555
C41_5 C38_5 1_555 1_555
H67_5 C41_5 1_555 1_555
H70_5 C44_5 1_555 1_555
O47_5 Cs3_8 1_555 1_555
C47_5 C44_5 1_555 1_555
H80_5 C47_5 1_555 1_555
H83_5 C47_5 1_555 1_555
O17_2 C18_5 1_555 1_555
O22_2 C21_5 1_555 1_555
C24_5 C27_5 1_555 1_555
O27_5 C28_5 1_555 1_555
O39_5 C36_5 1_555 1_555
O41_5 C38_5 1_555 1_555
O45_5 C41_5 1_555 1_555
C41_5 C44_5 1_555 1_555
O47_5 C47_5 1_555 1_555
C27_5 H85_5 1_555 1_555
O17_4 Cs7_3 1_555 1_555
O22_4 Cs7_3 1_555 1_555
O33_6 Cs7_3 1_555 1_555
O34_6 Cs7_3 1_555 1_555
O49_6 Cs7_3 1_555 1_555
O50_6 Cs7_3 1_555 1_555
O17_5 Cs5_3 1_555 1_555
O22_5 Cs5_3 1_555 1_555
O33_7 Cs5_3 1_555 1_555
O34_7 Cs5_3 1_555 1_555
O49_7 Cs5_3 1_555 1_555
O50_7 Cs5_3 1_555 1_555
Cs3_5 O32_6 1_555 1_555
O13_6 C15_6 1_555 1_555
C15_6 H22_6 1_555 1_555
C18_6 C15_6 1_555 1_555
H30_6 C18_6 1_555 1_555
C21_6 C18_6 1_555 1_555
H38_6 C21_6 1_555 1_555
O26_6 C24_6 1_555 1_555
C24_6 C21_6 1_555 1_555
H39_6 C24_6 1_555 1_555
C27_6 O13_6 1_555 1_555
C28_6 C27_6 1_555 1_555
H45_6 C28_6 1_555 1_555
H48_6 C28_6 1_555 1_555
O32_6 C33_6 1_555 1_555
C33_6 O26_6 1_555 1_555
H53_6 C33_6 1_555 1_555
C36_6 C33_6 1_555 1_555
H59_6 C36_6 1_555 1_555
H64_6 C38_6 1_555 1_555
O45_6 C15_6 1_555 1_555
C41_6 C38_6 1_555 1_555
H67_6 C41_6 1_555 1_555
H70_6 C44_6 1_555 1_555
O47_6 Cs6_3 1_555 1_555
C47_6 C44_6 1_555 1_555
H80_6 C47_6 1_555 1_555
H83_6 C47_6 1_555 1_555
O17_5 C18_6 1_555 1_555
O22_5 C21_6 1_555 1_555
C24_6 C27_6 1_555 1_555
O27_6 C28_6 1_555 1_555
O39_6 C36_6 1_555 1_555
O41_6 C38_6 1_555 1_555
O45_6 C41_6 1_555 1_555
C41_6 C44_6 1_555 1_555
O47_6 C47_6 1_555 1_555
C27_6 H85_6 1_555 1_555
Cs6_4 O31_6 1_555 1_555
O12_6 C14_6 1_555 1_555
C14_6 H21_6 1_555 1_555
C17_6 C14_6 1_555 1_555
H29_6 C17_6 1_555 1_555
C20_6 C17_6 1_555 1_555
H37_6 C20_6 1_555 1_555
O25_6 C23_6 1_555 1_555
C23_6 C20_6 1_555 1_555
H40_6 C23_6 1_555 1_555
C26_6 O12_6 1_555 1_555
C29_6 C26_6 1_555 1_555
H46_6 C29_6 1_555 1_555
H49_6 C29_6 1_555 1_555
O31_6 C32_6 1_555 1_555
C32_6 O25_6 1_555 1_555
H52_6 C32_6 1_555 1_555
C35_6 C32_6 1_555 1_555
H58_6 C35_6 1_555 1_555
H63_6 C37_6 1_555 1_555
O44_6 C14_6 1_555 1_555
C40_6 C37_6 1_555 1_555
H68_6 C40_6 1_555 1_555
H71_6 C43_6 1_555 1_555
O48_6 Cs6 1_555 1_555
C48_6 C43_6 1_555 1_555
H81_6 C48_6 1_555 1_555
H84_6 C48_6 1_555 1_555
O17_4 C17_6 1_555 1_555
O22_4 C20_6 1_555 1_555
C23_6 C26_6 1_555 1_555
O28_6 C29_6 1_555 1_555
O38_6 C35_6 1_555 1_555
O40_6 C37_6 1_555 1_555
O44_6 C40_6 1_555 1_555
C40_6 C43_6 1_555 1_555
O48_6 C48_6 1_555 1_555
C26_6 H87_6 1_555 1_555
O1_6 C1_6 1_555 1_555
C1_6 H1_6 1_555 1_555
C2_6 C1_6 1_555 1_555
H3_6 C2_6 1_555 1_555
C3_6 C2_6 1_555 1_555
H5_6 C3_6 1_555 1_555
O4_6 C4_6 1_555 1_555
C4_6 C3_6 1_555 1_555
H6_6 C4_6 1_555 1_555
C5_6 O1_6 1_555 1_555
C6_6 C5_6 1_555 1_555
H8_6 C6_6 1_555 1_555
H9_6 C6_6 1_555 1_555
O6_6 C7_6 1_555 1_555
C7_6 O4_6 1_555 1_555
H10_6 C7_6 1_555 1_555
C8_6 C7_6 1_555 1_555
H12_6 C8_6 1_555 1_555
O9_6 C1_6 1_555 1_555
Cs3_9 O6_6 1_555 1_555
H65_6 C39_6 1_555 1_555
C42_6 O9_6 1_555 1_555
H66_6 C42_6 1_555 1_555
H69_6 C45_6 1_555 1_555
O46_6 Cs3_6 1_555 1_555
C46_6 C45_6 1_555 1_555
H79_6 C46_6 1_555 1_555
H82_6 C46_6 1_555 1_555
O18_3 C2_6 1_555 1_555
O23_3 C3_6 1_555 1_555
C4_6 C5_6 1_555 1_555
O5_6 C6_6 1_555 1_555
O7_6 C8_6 1_555 1_555
O42_6 C39_6 1_555 1_555
C39_6 C42_6 1_555 1_555
C42_6 C45_6 1_555 1_555
O46_6 C46_6 1_555 1_555
C5_6 H95_6 1_555 1_555
H14_6 C9_6 1_555 1_555
C10_6 C9_6 1_555 1_555
H15_6 C10_6 1_555 1_555
H16_6 C11_6 1_555 1_555
C12_6 C11_6 1_555 1_555
H18_6 C12_6 1_555 1_555
H19_6 C12_6 1_555 1_555
Cs6_2 O30_6 1_555 1_555
O11_6 C13_6 1_555 1_555
C13_6 H20_6 1_555 1_555
C16_6 C13_6 1_555 1_555
H28_6 C16_6 1_555 1_555
C19_6 C16_6 1_555 1_555
H36_6 C19_6 1_555 1_555
O24_6 C22_6 1_555 1_555
C22_6 C19_6 1_555 1_555
H41_6 C22_6 1_555 1_555
C25_6 O11_6 1_555 1_555
C30_6 C25_6 1_555 1_555
H47_6 C30_6 1_555 1_555
H50_6 C30_6 1_555 1_555
O30_6 C31_6 1_555 1_555
C31_6 O24_6 1_555 1_555
H51_6 C31_6 1_555 1_555
C34_6 C31_6 1_555 1_555
H57_6 C34_6 1_555 1_555
O43_6 C10_6 1_555 1_555
O8_6 C9_6 1_555 1_555
C10_6 C11_6 1_555 1_555
O10_6 C12_6 1_555 1_555
O10_6 Cs3_10 1_555 1_555
C13_6 O43_6 1_555 1_555
O17_3 C16_6 1_555 1_555
O22_3 C19_6 1_555 1_555
C22_6 C25_6 1_555 1_555
O29_6 C30_6 1_555 1_555
O37_6 C34_6 1_555 1_555
C25_6 H88_6 1_555 1_555
Cs6_3 O2_6 1_555 1_555
O1_7 C1_7 1_555 1_555
C1_7 H1_7 1_555 1_555
C2_7 C1_7 1_555 1_555
H3_7 C2_7 1_555 1_555
O3_6 Cs6_3 1_555 1_555
C3_7 C2_7 1_555 1_555
H5_7 C3_7 1_555 1_555
O4_7 C4_7 1_555 1_555
C4_7 C3_7 1_555 1_555
H6_7 C4_7 1_555 1_555
C5_7 O1_7 1_555 1_555
C6_7 C5_7 1_555 1_555
H8_7 C6_7 1_555 1_555
H9_7 C6_7 1_555 1_555
O36_5 C7_7 1_555 1_555
C7_7 O4_7 1_555 1_555
H10_7 C7_7 1_555 1_555
C8_7 C7_7 1_555 1_555
H12_7 C8_7 1_555 1_555
C9_7 C8_7 1_555 1_555
H14_7 C9_7 1_555 1_555
O9_7 C1_7 1_555 1_555
C10_7 C9_7 1_555 1_555
H15_7 C10_7 1_555 1_555
C11_7 O36_5 1_555 1_555
H16_7 C11_7 1_555 1_555
C12_7 C11_7 1_555 1_555
H18_7 C12_7 1_555 1_555
H19_7 C12_7 1_555 1_555
Cs3_9 O14_6 1_555 1_555
Cs3_7 O15_4 1_555 1_555
Cs3_3 O16_4 1_555 1_555
O11_7 C13_7 1_555 1_555
O12_7 C14_7 1_555 1_555
O13_7 C15_7 1_555 1_555
C13_7 H20_7 1_555 1_555
C14_7 H21_7 1_555 1_555
C15_7 H22_7 1_555 1_555
C16_7 C13_7 1_555 1_555
C17_7 C14_7 1_555 1_555
C18_7 C15_7 1_555 1_555
H28_7 C16_7 1_555 1_555
H29_7 C17_7 1_555 1_555
H30_7 C18_7 1_555 1_555
O19_6 Cs3_9 1_555 1_555
O20_4 Cs3_7 1_555 1_555
O21_4 Cs3_3 1_555 1_555
C19_7 C16_7 1_555 1_555
C20_7 C17_7 1_555 1_555
C21_7 C18_7 1_555 1_555
H36_7 C19_7 1_555 1_555
H37_7 C20_7 1_555 1_555
H38_7 C21_7 1_555 1_555
O24_7 C22_7 1_555 1_555
O25_7 C23_7 1_555 1_555
O26_7 C24_7 1_555 1_555
C22_7 C19_7 1_555 1_555
C23_7 C20_7 1_555 1_555
C24_7 C21_7 1_555 1_555
H39_7 C24_7 1_555 1_555
H40_7 C23_7 1_555 1_555
H41_7 C22_7 1_555 1_555
C25_7 O11_7 1_555 1_555
C26_7 O12_7 1_555 1_555
C27_7 O13_7 1_555 1_555
C28_7 C27_7 1_555 1_555
C29_7 C26_7 1_555 1_555
C30_7 C25_7 1_555 1_555
H45_7 C28_7 1_555 1_555
H46_7 C29_7 1_555 1_555
H47_7 C30_7 1_555 1_555
H48_7 C28_7 1_555 1_555
H49_7 C29_7 1_555 1_555
H50_7 C30_7 1_555 1_555
O36_4 C31_7 1_555 1_555
O36_2 C32_7 1_555 1_555
O33_7 C33_7 1_555 1_555
C31_7 O24_7 1_555 1_555
C32_7 O25_7 1_555 1_555
C33_7 O26_7 1_555 1_555
H51_7 C31_7 1_555 1_555
H52_7 C32_7 1_555 1_555
H53_7 C33_7 1_555 1_555
C34_7 C31_7 1_555 1_555
C35_7 C32_7 1_555 1_555
C36_7 C33_7 1_555 1_555
H57_7 C34_7 1_555 1_555
H58_7 C35_7 1_555 1_555
H59_7 C36_7 1_555 1_555
C37_7 C34_7 1_555 1_555
C38_7 C35_7 1_555 1_555
C39_7 C36_7 1_555 1_555
H63_7 C37_7 1_555 1_555
H64_7 C38_7 1_555 1_555
H65_7 C39_7 1_555 1_555
O43_7 C10_7 1_555 1_555
O44_7 C14_7 1_555 1_555
O45_7 C15_7 1_555 1_555
C40_7 C37_7 1_555 1_555
C41_7 C38_7 1_555 1_555
C42_7 O9_7 1_555 1_555
H66_7 C42_7 1_555 1_555
H67_7 C41_7 1_555 1_555
H68_7 C40_7 1_555 1_555
C43_7 O36_4 1_555 1_555
C44_7 O36_2 1_555 1_555
C45_7 O33_7 1_555 1_555
H69_7 C45_7 1_555 1_555
H70_7 C44_7 1_555 1_555
H71_7 C43_7 1_555 1_555
C46_7 C45_7 1_555 1_555
C47_7 C44_7 1_555 1_555
C48_7 C43_7 1_555 1_555
H79_7 C46_7 1_555 1_555
H80_7 C47_7 1_555 1_555
H81_7 C48_7 1_555 1_555
H82_7 C46_7 1_555 1_555
H83_7 C47_7 1_555 1_555
H84_7 C48_7 1_555 1_555
O2_6 C2_7 1_555 1_555
O3_6 C3_7 1_555 1_555
C4_7 C5_7 1_555 1_555
O5_7 C6_7 1_555 1_555
O7_7 C8_7 1_555 1_555
O8_7 C9_7 1_555 1_555
C10_7 C11_7 1_555 1_555
O52_5 C12_7 1_555 1_555
C13_7 O43_7 1_555 1_555
O14_6 C16_7 1_555 1_555
O15_4 C17_7 1_555 1_555
O16_4 C18_7 1_555 1_555
O19_6 C19_7 1_555 1_555
O20_4 C20_7 1_555 1_555
O21_4 C21_7 1_555 1_555
C22_7 C25_7 1_555 1_555
C23_7 C26_7 1_555 1_555
C24_7 C27_7 1_555 1_555
O27_7 C28_7 1_555 1_555
O28_7 C29_7 1_555 1_555
O29_7 C30_7 1_555 1_555
O37_7 C34_7 1_555 1_555
O38_7 C35_7 1_555 1_555
O39_7 C36_7 1_555 1_555
O40_7 C37_7 1_555 1_555
O41_7 C38_7 1_555 1_555
O42_7 C39_7 1_555 1_555
C39_7 C42_7 1_555 1_555
O44_7 C40_7 1_555 1_555
O45_7 C41_7 1_555 1_555
C40_7 C43_7 1_555 1_555
C41_7 C44_7 1_555 1_555
C42_7 C45_7 1_555 1_555
O49_7 C46_7 1_555 1_555
O52_2 C47_7 1_555 1_555
O52_4 C48_7 1_555 1_555
C27_7 H85_7 1_555 1_555
C26_7 H87_7 1_555 1_555
C25_7 H88_7 1_555 1_555
C5_7 H95_7 1_555 1_555
O17_6 Cs6_4 1_555 1_555
O18_4 Cs3_10 1_555 1_555
O22_6 Cs6_4 1_555 1_555
O23_4 Cs3_10 1_555 1_555
O17_7 Cs3_5 1_555 1_555
O18_5 Cs6 1_555 1_555
O22_7 Cs3_5 1_555 1_555
O23_5 Cs6 1_555 1_555
Cs3_6 O2_7 1_555 1_555
O1_8 C1_8 1_555 1_555
C1_8 H1_8 1_555 1_555
C2_8 C1_8 1_555 1_555
H3_8 C2_8 1_555 1_555
O3_7 Cs3_6 1_555 1_555
C3_8 C2_8 1_555 1_555
H5_8 C3_8 1_555 1_555
O4_8 C4_8 1_555 1_555
C4_8 C3_8 1_555 1_555
H6_8 C4_8 1_555 1_555
C5_8 O1_8 1_555 1_555
C6_8 C5_8 1_555 1_555
H8_8 C6_8 1_555 1_555
H9_8 C6_8 1_555 1_555
O33_3 C7_8 1_555 1_555
C7_8 O4_8 1_555 1_555
H10_8 C7_8 1_555 1_555
C8_8 C7_8 1_555 1_555
H12_8 C8_8 1_555 1_555
C9_8 C8_8 1_555 1_555
H14_8 C9_8 1_555 1_555
O9_8 C1_8 1_555 1_555
C10_8 C9_8 1_555 1_555
H15_8 C10_8 1_555 1_555
C11_8 O33_3 1_555 1_555
H16_8 C11_8 1_555 1_555
C12_8 C11_8 1_555 1_555
H18_8 C12_8 1_555 1_555
H19_8 C12_8 1_555 1_555
Cs6_2 O14_7 1_555 1_555
Cs3_2 O15_5 1_555 1_555
Cs6_6 O16_5 1_555 1_555
O11_8 C13_8 1_555 1_555
O12_8 C14_8 1_555 1_555
O13_8 C15_8 1_555 1_555
C13_8 H20_8 1_555 1_555
C14_8 H21_8 1_555 1_555
C15_8 H22_8 1_555 1_555
C16_8 C13_8 1_555 1_555
C17_8 C14_8 1_555 1_555
C18_8 C15_8 1_555 1_555
H28_8 C16_8 1_555 1_555
H29_8 C17_8 1_555 1_555
H30_8 C18_8 1_555 1_555
O19_7 Cs6_2 1_555 1_555
O20_5 Cs3_2 1_555 1_555
O21_5 Cs6_6 1_555 1_555
C19_8 C16_8 1_555 1_555
C20_8 C17_8 1_555 1_555
C21_8 C18_8 1_555 1_555
H36_8 C19_8 1_555 1_555
H37_8 C20_8 1_555 1_555
H38_8 C21_8 1_555 1_555
O24_8 C22_8 1_555 1_555
O25_8 C23_8 1_555 1_555
O26_8 C24_8 1_555 1_555
C22_8 C19_8 1_555 1_555
C23_8 C20_8 1_555 1_555
C24_8 C21_8 1_555 1_555
H39_8 C24_8 1_555 1_555
H40_8 C23_8 1_555 1_555
H41_8 C22_8 1_555 1_555
C25_8 O11_8 1_555 1_555
C26_8 O12_8 1_555 1_555
C27_8 O13_8 1_555 1_555
C28_8 C27_8 1_555 1_555
C29_8 C26_8 1_555 1_555
C30_8 C25_8 1_555 1_555
H45_8 C28_8 1_555 1_555
H46_8 C29_8 1_555 1_555
H47_8 C30_8 1_555 1_555
H48_8 C28_8 1_555 1_555
H49_8 C29_8 1_555 1_555
H50_8 C30_8 1_555 1_555
O34_4 C31_8 1_555 1_555
O33 C32_8 1_555 1_555
O35_4 C33_8 1_555 1_555
C31_8 O24_8 1_555 1_555
C32_8 O25_8 1_555 1_555
C33_8 O26_8 1_555 1_555
H51_8 C31_8 1_555 1_555
H52_8 C32_8 1_555 1_555
H53_8 C33_8 1_555 1_555
C34_8 C31_8 1_555 1_555
C35_8 C32_8 1_555 1_555
C36_8 C33_8 1_555 1_555
H57_8 C34_8 1_555 1_555
H58_8 C35_8 1_555 1_555
H59_8 C36_8 1_555 1_555
C37_8 C34_8 1_555 1_555
C38_8 C35_8 1_555 1_555
C39_8 C36_8 1_555 1_555
H63_8 C37_8 1_555 1_555
H64_8 C38_8 1_555 1_555
H65_8 C39_8 1_555 1_555
O43_8 C10_8 1_555 1_555
O44_8 C14_8 1_555 1_555
O45_8 C15_8 1_555 1_555
C40_8 C37_8 1_555 1_555
C41_8 C38_8 1_555 1_555
C42_8 O9_8 1_555 1_555
H66_8 C42_8 1_555 1_555
H67_8 C41_8 1_555 1_555
H68_8 C40_8 1_555 1_555
C43_8 O34_4 1_555 1_555
C44_8 O33 1_555 1_555
C45_8 O35_4 1_555 1_555
H69_8 C45_8 1_555 1_555
H70_8 C44_8 1_555 1_555
H71_8 C43_8 1_555 1_555
C46_8 C45_8 1_555 1_555
C47_8 C44_8 1_555 1_555
C48_8 C43_8 1_555 1_555
H79_8 C46_8 1_555 1_555
H80_8 C47_8 1_555 1_555
H81_8 C48_8 1_555 1_555
H82_8 C46_8 1_555 1_555
H83_8 C47_8 1_555 1_555
H84_8 C48_8 1_555 1_555
O2_7 C2_8 1_555 1_555
O3_7 C3_8 1_555 1_555
C4_8 C5_8 1_555 1_555
O5_8 C6_8 1_555 1_555
O7_8 C8_8 1_555 1_555
O8_8 C9_8 1_555 1_555
C10_8 C11_8 1_555 1_555
O49_3 C12_8 1_555 1_555
C13_8 O43_8 1_555 1_555
O14_7 C16_8 1_555 1_555
O15_5 C17_8 1_555 1_555
O16_5 C18_8 1_555 1_555
O19_7 C19_8 1_555 1_555
O20_5 C20_8 1_555 1_555
O21_5 C21_8 1_555 1_555
C22_8 C25_8 1_555 1_555
C23_8 C26_8 1_555 1_555
C24_8 C27_8 1_555 1_555
O27_8 C28_8 1_555 1_555
O28_8 C29_8 1_555 1_555
O29_8 C30_8 1_555 1_555
O37_8 C34_8 1_555 1_555
O38_8 C35_8 1_555 1_555
O39_8 C36_8 1_555 1_555
O40_8 C37_8 1_555 1_555
O41_8 C38_8 1_555 1_555
O42_8 C39_8 1_555 1_555
C39_8 C42_8 1_555 1_555
O44_8 C40_8 1_555 1_555
O45_8 C41_8 1_555 1_555
C40_8 C43_8 1_555 1_555
C41_8 C44_8 1_555 1_555
C42_8 C45_8 1_555 1_555
O51_4 C46_8 1_555 1_555
O49 C47_8 1_555 1_555
O50_4 C48_8 1_555 1_555
C27_8 H85_8 1_555 1_555
C26_8 H87_8 1_555 1_555
C25_8 H88_8 1_555 1_555
C5_8 H95_8 1_555 1_555
Cs3_4 O2_8 1_555 1_555
O1_9 C1_9 1_555 1_555
C1_9 H1_9 1_555 1_555
C2_9 C1_9 1_555 1_555
H3_9 C2_9 1_555 1_555
O3_8 Cs3_4 1_555 1_555
C3_9 C2_9 1_555 1_555
H5_9 C3_9 1_555 1_555
O4_9 C4_9 1_555 1_555
C4_9 C3_9 1_555 1_555
H6_9 C4_9 1_555 1_555
C5_9 O1_9 1_555 1_555
C6_9 C5_9 1_555 1_555
H8_9 C6_9 1_555 1_555
H9_9 C6_9 1_555 1_555
O33_2 C7_9 1_555 1_555
C7_9 O4_9 1_555 1_555
H10_9 C7_9 1_555 1_555
C8_9 C7_9 1_555 1_555
H12_9 C8_9 1_555 1_555
C9_9 C8_9 1_555 1_555
H14_9 C9_9 1_555 1_555
O9_9 C1_9 1_555 1_555
C10_9 C9_9 1_555 1_555
H15_9 C10_9 1_555 1_555
C11_9 O33_2 1_555 1_555
H16_9 C11_9 1_555 1_555
C12_9 C11_9 1_555 1_555
H18_9 C12_9 1_555 1_555
H19_9 C12_9 1_555 1_555
Cs3_8 O14_8 1_555 1_555
O11_9 C13_9 1_555 1_555
O12_9 C14_9 1_555 1_555
O13_9 C15_9 1_555 1_555
C13_9 H20_9 1_555 1_555
C14_9 H21_9 1_555 1_555
C15_9 H22_9 1_555 1_555
C16_9 C13_9 1_555 1_555
C17_9 C14_9 1_555 1_555
C18_9 C15_9 1_555 1_555
H28_9 C16_9 1_555 1_555
H29_9 C17_9 1_555 1_555
H30_9 C18_9 1_555 1_555
O19_8 Cs3_8 1_555 1_555
C19_9 C16_9 1_555 1_555
C20_9 C17_9 1_555 1_555
C21_9 C18_9 1_555 1_555
H36_9 C19_9 1_555 1_555
H37_9 C20_9 1_555 1_555
H38_9 C21_9 1_555 1_555
O24_9 C22_9 1_555 1_555
O25_9 C23_9 1_555 1_555
O26_9 C24_9 1_555 1_555
C22_9 C19_9 1_555 1_555
C23_9 C20_9 1_555 1_555
C24_9 C21_9 1_555 1_555
H39_9 C24_9 1_555 1_555
H40_9 C23_9 1_555 1_555
H41_9 C22_9 1_555 1_555
C25_9 O11_9 1_555 1_555
C26_9 O12_9 1_555 1_555
C27_9 O13_9 1_555 1_555
C28_9 C27_9 1_555 1_555
C29_9 C26_9 1_555 1_555
C30_9 C25_9 1_555 1_555
H45_9 C28_9 1_555 1_555
H46_9 C29_9 1_555 1_555
H47_9 C30_9 1_555 1_555
H48_9 C28_9 1_555 1_555
H49_9 C29_9 1_555 1_555
H50_9 C30_9 1_555 1_555
O33_4 C31_9 1_555 1_555
O33_5 C32_9 1_555 1_555
O34_6 C33_9 1_555 1_555
C31_9 O24_9 1_555 1_555
C32_9 O25_9 1_555 1_555
C33_9 O26_9 1_555 1_555
H51_9 C31_9 1_555 1_555
H52_9 C32_9 1_555 1_555
H53_9 C33_9 1_555 1_555
C34_9 C31_9 1_555 1_555
C35_9 C32_9 1_555 1_555
C36_9 C33_9 1_555 1_555
H57_9 C34_9 1_555 1_555
H58_9 C35_9 1_555 1_555
H59_9 C36_9 1_555 1_555
C37_9 C34_9 1_555 1_555
C38_9 C35_9 1_555 1_555
C39_9 C36_9 1_555 1_555
H63_9 C37_9 1_555 1_555
H64_9 C38_9 1_555 1_555
H65_9 C39_9 1_555 1_555
O43_9 C10_9 1_555 1_555
O44_9 C14_9 1_555 1_555
O45_9 C15_9 1_555 1_555
C40_9 C37_9 1_555 1_555
C41_9 C38_9 1_555 1_555
C42_9 O9_9 1_555 1_555
H66_9 C42_9 1_555 1_555
H67_9 C41_9 1_555 1_555
H68_9 C40_9 1_555 1_555
C43_9 O33_4 1_555 1_555
C44_9 O33_5 1_555 1_555
C45_9 O34_6 1_555 1_555
H69_9 C45_9 1_555 1_555
H70_9 C44_9 1_555 1_555
H71_9 C43_9 1_555 1_555
C46_9 C45_9 1_555 1_555
C47_9 C44_9 1_555 1_555
C48_9 C43_9 1_555 1_555
H79_9 C46_9 1_555 1_555
H80_9 C47_9 1_555 1_555
H81_9 C48_9 1_555 1_555
H82_9 C46_9 1_555 1_555
H83_9 C47_9 1_555 1_555
H84_9 C48_9 1_555 1_555
O2_8 C2_9 1_555 1_555
O3_8 C3_9 1_555 1_555
C4_9 C5_9 1_555 1_555
O5_9 C6_9 1_555 1_555
O7_9 C8_9 1_555 1_555
O8_9 C9_9 1_555 1_555
C10_9 C11_9 1_555 1_555
O49_2 C12_9 1_555 1_555
C13_9 O43_9 1_555 1_555
O14_8 C16_9 1_555 1_555
O18_4 C17_9 1_555 1_555
O17_6 C18_9 1_555 1_555
O19_8 C19_9 1_555 1_555
O23_4 C20_9 1_555 1_555
O22_6 C21_9 1_555 1_555
C22_9 C25_9 1_555 1_555
C23_9 C26_9 1_555 1_555
C24_9 C27_9 1_555 1_555
O27_9 C28_9 1_555 1_555
O28_9 C29_9 1_555 1_555
O29_9 C30_9 1_555 1_555
O37_9 C34_9 1_555 1_555
O38_9 C35_9 1_555 1_555
O39_9 C36_9 1_555 1_555
O40_9 C37_9 1_555 1_555
O41_9 C38_9 1_555 1_555
O42_9 C39_9 1_555 1_555
C39_9 C42_9 1_555 1_555
O44_9 C40_9 1_555 1_555
O45_9 C41_9 1_555 1_555
C40_9 C43_9 1_555 1_555
C41_9 C44_9 1_555 1_555
C42_9 C45_9 1_555 1_555
O50_6 C46_9 1_555 1_555
O49_5 C47_9 1_555 1_555
O49_4 C48_9 1_555 1_555
C27_9 H85_9 1_555 1_555
C26_9 H87_9 1_555 1_555
C25_9 H88_9 1_555 1_555
C5_9 H95_9 1_555 1_555
Cs4_3 O2_9 1_555 1_555
O1_10 C1_10 1_555 1_555
C1_10 H1_10 1_555 1_555
C2_10 C1_10 1_555 1_555
H3_10 C2_10 1_555 1_555
O3_9 Cs4_3 1_555 1_555
C3_10 C2_10 1_555 1_555
H5_10 C3_10 1_555 1_555
O4_10 C4_10 1_555 1_555
C4_10 C3_10 1_555 1_555
H6_10 C4_10 1_555 1_555
C5_10 O1_10 1_555 1_555
C6_10 C5_10 1_555 1_555
H8_10 C6_10 1_555 1_555
H9_10 C6_10 1_555 1_555
O35_3 C7_10 1_555 1_555
C7_10 O4_10 1_555 1_555
H10_10 C7_10 1_555 1_555
C8_10 C7_10 1_555 1_555
H12_10 C8_10 1_555 1_555
C9_10 C8_10 1_555 1_555
H14_10 C9_10 1_555 1_555
O9_10 C1_10 1_555 1_555
C10_10 C9_10 1_555 1_555
H15_10 C10_10 1_555 1_555
C11_10 O35_3 1_555 1_555
H16_10 C11_10 1_555 1_555
C12_10 C11_10 1_555 1_555
H18_10 C12_10 1_555 1_555
H19_10 C12_10 1_555 1_555
Cs4 O14_9 1_555 1_555
Cs8 O15_6 1_555 1_555
Cs8_3 O16_6 1_555 1_555
O11_10 C13_10 1_555 1_555
O12_10 C14_10 1_555 1_555
O13_10 C15_10 1_555 1_555
C13_10 H20_10 1_555 1_555
C14_10 H21_10 1_555 1_555
C15_10 H22_10 1_555 1_555
C16_10 C13_10 1_555 1_555
C17_10 C14_10 1_555 1_555
C18_10 C15_10 1_555 1_555
H28_10 C16_10 1_555 1_555
H29_10 C17_10 1_555 1_555
H30_10 C18_10 1_555 1_555
O19_9 Cs4 1_555 1_555
O20_6 Cs8 1_555 1_555
O21_6 Cs8_3 1_555 1_555
C19_10 C16_10 1_555 1_555
C20_10 C17_10 1_555 1_555
C21_10 C18_10 1_555 1_555
H36_10 C19_10 1_555 1_555
H37_10 C20_10 1_555 1_555
H38_10 C21_10 1_555 1_555
O24_10 C22_10 1_555 1_555
O25_10 C23_10 1_555 1_555
O26_10 C24_10 1_555 1_555
C22_10 C19_10 1_555 1_555
C23_10 C20_10 1_555 1_555
C24_10 C21_10 1_555 1_555
H39_10 C24_10 1_555 1_555
H40_10 C23_10 1_555 1_555
H41_10 C22_10 1_555 1_555
C25_10 O11_10 1_555 1_555
C26_10 O12_10 1_555 1_555
C27_10 O13_10 1_555 1_555
C28_10 C27_10 1_555 1_555
C29_10 C26_10 1_555 1_555
C30_10 C25_10 1_555 1_555
H45_10 C28_10 1_555 1_555
H46_10 C29_10 1_555 1_555
H47_10 C30_10 1_555 1_555
H48_10 C28_10 1_555 1_555
H49_10 C29_10 1_555 1_555
H50_10 C30_10 1_555 1_555
O34_5 C31_10 1_555 1_555
O34_3 C32_10 1_555 1_555
O35_5 C33_10 1_555 1_555
C31_10 O24_10 1_555 1_555
C32_10 O25_10 1_555 1_555
C33_10 O26_10 1_555 1_555
H51_10 C31_10 1_555 1_555
H52_10 C32_10 1_555 1_555
H53_10 C33_10 1_555 1_555
C34_10 C31_10 1_555 1_555
C35_10 C32_10 1_555 1_555
C36_10 C33_10 1_555 1_555
H57_10 C34_10 1_555 1_555
H58_10 C35_10 1_555 1_555
H59_10 C36_10 1_555 1_555
C37_10 C34_10 1_555 1_555
C38_10 C35_10 1_555 1_555
C39_10 C36_10 1_555 1_555
H63_10 C37_10 1_555 1_555
H64_10 C38_10 1_555 1_555
H65_10 C39_10 1_555 1_555
O43_10 C10_10 1_555 1_555
O44_10 C14_10 1_555 1_555
O45_10 C15_10 1_555 1_555
C40_10 C37_10 1_555 1_555
C41_10 C38_10 1_555 1_555
C42_10 O9_10 1_555 1_555
H66_10 C42_10 1_555 1_555
H67_10 C41_10 1_555 1_555
H68_10 C40_10 1_555 1_555
C43_10 O34_5 1_555 1_555
C44_10 O34_3 1_555 1_555
C45_10 O35_5 1_555 1_555
H69_10 C45_10 1_555 1_555
H70_10 C44_10 1_555 1_555
H71_10 C43_10 1_555 1_555
C46_10 C45_10 1_555 1_555
C47_10 C44_10 1_555 1_555
C48_10 C43_10 1_555 1_555
H79_10 C46_10 1_555 1_555
H80_10 C47_10 1_555 1_555
H81_10 C48_10 1_555 1_555
H82_10 C46_10 1_555 1_555
H83_10 C47_10 1_555 1_555
H84_10 C48_10 1_555 1_555
O2_9 C2_10 1_555 1_555
O3_9 C3_10 1_555 1_555
C4_10 C5_10 1_555 1_555
O5_10 C6_10 1_555 1_555
O7_10 C8_10 1_555 1_555
O8_10 C9_10 1_555 1_555
C10_10 C11_10 1_555 1_555
O51_3 C12_10 1_555 1_555
C13_10 O43_10 1_555 1_555
O14_9 C16_10 1_555 1_555
O15_6 C17_10 1_555 1_555
O16_6 C18_10 1_555 1_555
O19_9 C19_10 1_555 1_555
O20_6 C20_10 1_555 1_555
O21_6 C21_10 1_555 1_555
C22_10 C25_10 1_555 1_555
C23_10 C26_10 1_555 1_555
C24_10 C27_10 1_555 1_555
O27_10 C28_10 1_555 1_555
O28_10 C29_10 1_555 1_555
O29_10 C30_10 1_555 1_555
O37_10 C34_10 1_555 1_555
O38_10 C35_10 1_555 1_555
O39_10 C36_10 1_555 1_555
O40_10 C37_10 1_555 1_555
O41_10 C38_10 1_555 1_555
O42_10 C39_10 1_555 1_555
C39_10 C42_10 1_555 1_555
O44_10 C40_10 1_555 1_555
O45_10 C41_10 1_555 1_555
C40_10 C43_10 1_555 1_555
C41_10 C44_10 1_555 1_555
C42_10 C45_10 1_555 1_555
O51_5 C46_10 1_555 1_555
O50_3 C47_10 1_555 1_555
O50_5 C48_10 1_555 1_555
C27_10 H85_10 1_555 1_555
C26_10 H87_10 1_555 1_555
C25_10 H88_10 1_555 1_555
C5_10 H95_10 1_555 1_555
O17_8 Cs4_4 1_555 1_555
O18_6 Cs4_2 1_555 1_555
O22_8 Cs4_4 1_555 1_555
O23_6 Cs4_2 1_555 1_555
Cs6_5 O2_10 1_555 1_555
O1_11 C1_11 1_555 1_555
C1_11 H1_11 1_555 1_555
C2_11 C1_11 1_555 1_555
H3_11 C2_11 1_555 1_555
O3_10 Cs6_5 1_555 1_555
C3_11 C2_11 1_555 1_555
H5_11 C3_11 1_555 1_555
O4_11 C4_11 1_555 1_555
C4_11 C3_11 1_555 1_555
H6_11 C4_11 1_555 1_555
C5_11 O1_11 1_555 1_555
C6_11 C5_11 1_555 1_555
H8_11 C6_11 1_555 1_555
H9_11 C6_11 1_555 1_555
O36 C7_11 1_555 1_555
C7_11 O4_11 1_555 1_555
H10_11 C7_11 1_555 1_555
C8_11 C7_11 1_555 1_555
H12_11 C8_11 1_555 1_555
C9_11 C8_11 1_555 1_555
H14_11 C9_11 1_555 1_555
O9_11 C1_11 1_555 1_555
C10_11 C9_11 1_555 1_555
H15_11 C10_11 1_555 1_555
C11_11 O36 1_555 1_555
H16_11 C11_11 1_555 1_555
C12_11 C11_11 1_555 1_555
H18_11 C12_11 1_555 1_555
H19_11 C12_11 1_555 1_555
Cs3 O14_10 1_555 1_555
O11_11 C13_11 1_555 1_555
O12_11 C14_11 1_555 1_555
O13_11 C15_11 1_555 1_555
C13_11 H20_11 1_555 1_555
C14_11 H21_11 1_555 1_555
C15_11 H22_11 1_555 1_555
C16_11 C13_11 1_555 1_555
C17_11 C14_11 1_555 1_555
C18_11 C15_11 1_555 1_555
H28_11 C16_11 1_555 1_555
H29_11 C17_11 1_555 1_555
H30_11 C18_11 1_555 1_555
O19_10 Cs3 1_555 1_555
C19_11 C16_11 1_555 1_555
C20_11 C17_11 1_555 1_555
C21_11 C18_11 1_555 1_555
H36_11 C19_11 1_555 1_555
H37_11 C20_11 1_555 1_555
H38_11 C21_11 1_555 1_555
O24_11 C22_11 1_555 1_555
O25_11 C23_11 1_555 1_555
O26_11 C24_11 1_555 1_555
C22_11 C19_11 1_555 1_555
C23_11 C20_11 1_555 1_555
C24_11 C21_11 1_555 1_555
H39_11 C24_11 1_555 1_555
H40_11 C23_11 1_555 1_555
H41_11 C22_11 1_555 1_555
C25_11 O11_11 1_555 1_555
C26_11 O12_11 1_555 1_555
C27_11 O13_11 1_555 1_555
C28_11 C27_11 1_555 1_555
C29_11 C26_11 1_555 1_555
C30_11 C25_11 1_555 1_555
H45_11 C28_11 1_555 1_555
H46_11 C29_11 1_555 1_555
H47_11 C30_11 1_555 1_555
H48_11 C28_11 1_555 1_555
H49_11 C29_11 1_555 1_555
H50_11 C30_11 1_555 1_555
O33_6 C31_11 1_555 1_555
O36_3 C32_11 1_555 1_555
O34_7 C33_11 1_555 1_555
C31_11 O24_11 1_555 1_555
C32_11 O25_11 1_555 1_555
C33_11 O26_11 1_555 1_555
H51_11 C31_11 1_555 1_555
H52_11 C32_11 1_555 1_555
H53_11 C33_11 1_555 1_555
C34_11 C31_11 1_555 1_555
C35_11 C32_11 1_555 1_555
C36_11 C33_11 1_555 1_555
H57_11 C34_11 1_555 1_555
H58_11 C35_11 1_555 1_555
H59_11 C36_11 1_555 1_555
C37_11 C34_11 1_555 1_555
C38_11 C35_11 1_555 1_555
C39_11 C36_11 1_555 1_555
H63_11 C37_11 1_555 1_555
H64_11 C38_11 1_555 1_555
H65_11 C39_11 1_555 1_555
O43_11 C10_11 1_555 1_555
O44_11 C14_11 1_555 1_555
O45_11 C15_11 1_555 1_555
C40_11 C37_11 1_555 1_555
C41_11 C38_11 1_555 1_555
C42_11 O9_11 1_555 1_555
H66_11 C42_11 1_555 1_555
H67_11 C41_11 1_555 1_555
H68_11 C40_11 1_555 1_555
C43_11 O33_6 1_555 1_555
C44_11 O36_3 1_555 1_555
C45_11 O34_7 1_555 1_555
H69_11 C45_11 1_555 1_555
H70_11 C44_11 1_555 1_555
H71_11 C43_11 1_555 1_555
C46_11 C45_11 1_555 1_555
C47_11 C44_11 1_555 1_555
C48_11 C43_11 1_555 1_555
H79_11 C46_11 1_555 1_555
H80_11 C47_11 1_555 1_555
H81_11 C48_11 1_555 1_555
H82_11 C46_11 1_555 1_555
H83_11 C47_11 1_555 1_555
H84_11 C48_11 1_555 1_555
O2_10 C2_11 1_555 1_555
O3_10 C3_11 1_555 1_555
C4_11 C5_11 1_555 1_555
O5_11 C6_11 1_555 1_555
O7_11 C8_11 1_555 1_555
O8_11 C9_11 1_555 1_555
C10_11 C11_11 1_555 1_555
O52 C12_11 1_555 1_555
C13_11 O43_11 1_555 1_555
O14_10 C16_11 1_555 1_555
O18_5 C17_11 1_555 1_555
O17_7 C18_11 1_555 1_555
O19_10 C19_11 1_555 1_555
O23_5 C20_11 1_555 1_555
O22_7 C21_11 1_555 1_555
C22_11 C25_11 1_555 1_555
C23_11 C26_11 1_555 1_555
C24_11 C27_11 1_555 1_555
O27_11 C28_11 1_555 1_555
O28_11 C29_11 1_555 1_555
O29_11 C30_11 1_555 1_555
O37_11 C34_11 1_555 1_555
O38_11 C35_11 1_555 1_555
O39_11 C36_11 1_555 1_555
O40_11 C37_11 1_555 1_555
O41_11 C38_11 1_555 1_555
O42_11 C39_11 1_555 1_555
C39_11 C42_11 1_555 1_555
O44_11 C40_11 1_555 1_555
O45_11 C41_11 1_555 1_555
C40_11 C43_11 1_555 1_555
C41_11 C44_11 1_555 1_555
C42_11 C45_11 1_555 1_555
O50_7 C46_11 1_555 1_555
O52_3 C47_11 1_555 1_555
O49_6 C48_11 1_555 1_555
C27_11 H85_11 1_555 1_555
C26_11 H87_11 1_555 1_555
C25_11 H88_11 1_555 1_555
C5_11 H95_11 1_555 1_555
O17_9 Cs8_4 1_555 1_555
O22_9 Cs8_4 1_555 1_555
O17_10 Cs8_2 1_555 1_555
O22_10 Cs8_2 1_555 1_555
O1_12 C1_12 1_555 1_555
C1_12 H1_12 1_555 1_555
C2_12 C1_12 1_555 1_555
H3_12 C2_12 1_555 1_555
C3_12 C2_12 1_555 1_555
H5_12 C3_12 1_555 1_555
O4_12 C4_12 1_555 1_555
C4_12 C3_12 1_555 1_555
H6_12 C4_12 1_555 1_555
C5_12 O1_12 1_555 1_555
C6_12 C5_12 1_555 1_555
H8_12 C6_12 1_555 1_555
H9_12 C6_12 1_555 1_555
O35 C7_12 1_555 1_555
C7_12 O4_12 1_555 1_555
H10_12 C7_12 1_555 1_555
C8_12 C7_12 1_555 1_555
H12_12 C8_12 1_555 1_555
C9_12 C8_12 1_555 1_555
H14_12 C9_12 1_555 1_555
O9_12 C1_12 1_555 1_555
C10_12 C9_12 1_555 1_555
H15_12 C10_12 1_555 1_555
C11_12 O35 1_555 1_555
H16_12 C11_12 1_555 1_555
C12_12 C11_12 1_555 1_555
H18_12 C12_12 1_555 1_555
H19_12 C12_12 1_555 1_555
O11_12 C13_12 1_555 1_555
O12_12 C14_12 1_555 1_555
O13_12 C15_12 1_555 1_555
C13_12 H20_12 1_555 1_555
C14_12 H21_12 1_555 1_555
C15_12 H22_12 1_555 1_555
C16_12 C13_12 1_555 1_555
C17_12 C14_12 1_555 1_555
C18_12 C15_12 1_555 1_555
H28_12 C16_12 1_555 1_555
H29_12 C17_12 1_555 1_555
H30_12 C18_12 1_555 1_555
C19_12 C16_12 1_555 1_555
C20_12 C17_12 1_555 1_555
C21_12 C18_12 1_555 1_555
H36_12 C19_12 1_555 1_555
H37_12 C20_12 1_555 1_555
H38_12 C21_12 1_555 1_555
O24_12 C22_12 1_555 1_555
O25_12 C23_12 1_555 1_555
O26_12 C24_12 1_555 1_555
C22_12 C19_12 1_555 1_555
C23_12 C20_12 1_555 1_555
C24_12 C21_12 1_555 1_555
H39_12 C24_12 1_555 1_555
H40_12 C23_12 1_555 1_555
H41_12 C22_12 1_555 1_555
C25_12 O11_12 1_555 1_555
C26_12 O12_12 1_555 1_555
C27_12 O13_12 1_555 1_555
C28_12 C27_12 1_555 1_555
C29_12 C26_12 1_555 1_555
C30_12 C25_12 1_555 1_555
H45_12 C28_12 1_555 1_555
H46_12 C29_12 1_555 1_555
H47_12 C30_12 1_555 1_555
H48_12 C28_12 1_555 1_555
H49_12 C29_12 1_555 1_555
H50_12 C30_12 1_555 1_555
O35_2 C31_12 1_555 1_555
O34 C32_12 1_555 1_555
O34_2 C33_12 1_555 1_555
C31_12 O24_12 1_555 1_555
C32_12 O25_12 1_555 1_555
C33_12 O26_12 1_555 1_555
H51_12 C31_12 1_555 1_555
H52_12 C32_12 1_555 1_555
H53_12 C33_12 1_555 1_555
C34_12 C31_12 1_555 1_555
C35_12 C32_12 1_555 1_555
C36_12 C33_12 1_555 1_555
H57_12 C34_12 1_555 1_555
H58_12 C35_12 1_555 1_555
H59_12 C36_12 1_555 1_555
C37_12 C34_12 1_555 1_555
C38_12 C35_12 1_555 1_555
C39_12 C36_12 1_555 1_555
H63_12 C37_12 1_555 1_555
H64_12 C38_12 1_555 1_555
H65_12 C39_12 1_555 1_555
O43_12 C10_12 1_555 1_555
O44_12 C14_12 1_555 1_555
O45_12 C15_12 1_555 1_555
C40_12 C37_12 1_555 1_555
C41_12 C38_12 1_555 1_555
C42_12 O9_12 1_555 1_555
H66_12 C42_12 1_555 1_555
H67_12 C41_12 1_555 1_555
H68_12 C40_12 1_555 1_555
C43_12 O35_2 1_555 1_555
C44_12 O34 1_555 1_555
C45_12 O34_2 1_555 1_555
H69_12 C45_12 1_555 1_555
H70_12 C44_12 1_555 1_555
H71_12 C43_12 1_555 1_555
C46_12 C45_12 1_555 1_555
C47_12 C44_12 1_555 1_555
C48_12 C43_12 1_555 1_555
H79_12 C46_12 1_555 1_555
H80_12 C47_12 1_555 1_555
H81_12 C48_12 1_555 1_555
H82_12 C46_12 1_555 1_555
H83_12 C47_12 1_555 1_555
H84_12 C48_12 1_555 1_555
O18_6 C2_12 1_555 1_555
O23_6 C3_12 1_555 1_555
C4_12 C5_12 1_555 1_555
O5_12 C6_12 1_555 1_555
O7_12 C8_12 1_555 1_555
O8_12 C9_12 1_555 1_555
C10_12 C11_12 1_555 1_555
O51 C12_12 1_555 1_555
C13_12 O43_12 1_555 1_555
O17_8 C16_12 1_555 1_555
O17_9 C17_12 1_555 1_555
O17_10 C18_12 1_555 1_555
O22_8 C19_12 1_555 1_555
O22_9 C20_12 1_555 1_555
O22_10 C21_12 1_555 1_555
C22_12 C25_12 1_555 1_555
C23_12 C26_12 1_555 1_555
C24_12 C27_12 1_555 1_555
O27_12 C28_12 1_555 1_555
O28_12 C29_12 1_555 1_555
O29_12 C30_12 1_555 1_555
O37_12 C34_12 1_555 1_555
O38_12 C35_12 1_555 1_555
O39_12 C36_12 1_555 1_555
O40_12 C37_12 1_555 1_555
O41_12 C38_12 1_555 1_555
O42_12 C39_12 1_555 1_555
C39_12 C42_12 1_555 1_555
O44_12 C40_12 1_555 1_555
O45_12 C41_12 1_555 1_555
C40_12 C43_12 1_555 1_555
C41_12 C44_12 1_555 1_555
C42_12 C45_12 1_555 1_555
O50_2 C46_12 1_555 1_555
O50 C47_12 1_555 1_555
O51_2 C48_12 1_555 1_555
C27_12 H85_12 1_555 1_555
C26_12 H87_12 1_555 1_555
C25_12 H88_12 1_555 1_555
C5_12 H95_12 1_555 1_555

#END
