
###############################################################################
#
# This file contains modified crystal structure data generated from the
# MOF subset of the Cambridge Structural Database (CSD) v542 
# hosted by the Cambridge Crystallographic Data Centre (CCDC).
#
# This work is licensed under the Creative Commons
# Attribution-NonCommercial-ShareAlike 4.0 International License.
# To view a copy of this license, visit
# http://creativecommons.org/licenses/by-nc-sa/4.0/
# or send a letter to
# Creative Commons, PO Box 1866, Mountain View, CA 94042, USA.
#
# CIF created using the CSD Python API on 22 February 2021
# The structure has been converted into the P1 space group
# The structure has a 3D framework
# The original CSD entry NITHIK is in the orthorhombic crystal system
# The framework has been calculated to contain at least 10.0% void space
# The void calculation uses a probe of radius 1.32A, grid spacing 0.4
#
###############################################################################

data_NITHIK
_chemical_formula_moiety         '(C528 H352 Gd21 N16 O150)n'
_symmetry_cell_setting           triclinic
_symmetry_space_group_name_H-M   'P 1'
_symmetry_Int_Tables_number      1
_space_group_name_Hall           'P 1'
loop_
_symmetry_equiv_pos_site_id
_symmetry_equiv_pos_as_xyz
1 x,y,z
_cell_length_a                   8.2659(4)
_cell_length_b                   34.5126(16)
_cell_length_c                   52.024(2)
_cell_angle_alpha                90
_cell_angle_beta                 90
_cell_angle_gamma                90
_cell_volume                     14841.3
loop_
_atom_site_label
_atom_site_type_symbol
_atom_site_fract_x
_atom_site_fract_y
_atom_site_fract_z
Gd1 Gd 0.000000 -0.000000 0.03096(2)
H1 H 0.081026 0.272342 0.010137
H7 H 0.026002 0.150708 0.015565
C26 C 0.0479(16) 0.3815(4) 0.0091(3)
C27 C 0.1713(15) 0.4059(4) 0.0027(3)
C30 C 0.1840(16) 0.4431(4) 0.0160(3)
O8 O 0.0564(15) 0.4581(3) 0.0247(2)
O9 O 0.3203(12) 0.4585(3) 0.0168(2)
Gd7 Gd 0.500000 0.500000 0.03096(2)
Gd11 Gd 0.000000 0.500000 0.05643(2)
O24 O 0.0596(14) 0.0358(3) 0.0674(2)
O29 O 0.1797(12) 0.0415(3) 0.0168(2)
C1 C 0.0324(15) 0.2566(3) 0.9979(3)
C6 C 0.0431(14) 0.2647(4) 0.9727(3)
H8 H 0.079593 0.191879 0.916352
C18 C 0.0151(16) 0.2005(4) 0.8784(3)
H9 H 0.120126 0.202595 0.872148
C23 C 0.1332(13) 0.2992(3) 0.9631(3)
C24 C 0.2686(15) 0.3603(4) 0.9726(3)
H12 H 0.345346 0.352755 0.960557
C25 C 0.0412(15) 0.3456(4) 0.9970(3)
C28 C 0.2806(15) 0.3960(4) 0.9841(3)
H15 H 0.361916 0.413188 0.979350
C29 C 0.1480(13) 0.3367(3) 0.9786(3)
O5 O 0.0633(12) 0.2233(3) 0.8290(2)
O7 O 0.1858(12) 0.2991(3) 0.9407(2)
Gd9 Gd 0.250000 0.250000 0.80643(2)
Gd1_2 Gd 0.000000 1.000000 0.03096(2)
O21 O 0.2291(11) 0.9672(2) 0.0434(4)
C31 C 0.429(4) 0.9439(11) 0.9520(7)
H16 H 0.424234 0.934776 0.934599
H17 H 0.491784 0.967274 0.952711
H18 H 0.479304 0.924477 0.962613
C32 C 0.241(2) 0.9643(7) 0.9848(4)
O10 O 0.1008(13) 0.9693(3) 0.9935(2)
N1 N 0.267(2) 0.9515(6) 0.9613(3)
C33 C 0.141(4) 0.9418(10) 0.9427(7)
H19 H 0.189817 0.936432 0.926381
H20 H 0.067862 0.963300 0.941039
H21 H 0.082550 0.919443 0.948529
H44 H 0.344311 0.970747 0.997065
Gd1_3 Gd 1.000000 -0.000000 0.03096(2)
Gd2 Gd 0.500000 -0.000000 0.05643(2)
C2 C 0.9444(19) 0.2230(5) 0.0052(3)
C7 C 0.921(2) 0.2153(4) 0.0334(3)
C8 C 0.880(2) 0.1749(4) 0.0414(4)
C9 C 0.776(2) 0.1695(5) 0.0604(4)
H4 H 0.735860 0.190463 0.069679
C10 C 0.7283(18) 0.1323(4) 0.0663(3)
H5 H 0.651964 0.128145 0.079195
C11 C 0.7932(16) 0.1009(4) 0.0533(3)
C12 C 0.9065(15) 0.1074(4) 0.0344(3)
H6 H 0.953529 0.086666 0.025738
C13 C 0.9501(18) 0.1457(4) 0.0283(3)
C14 C 0.7279(14) 0.0612(4) 0.0570(3)
H13 H 0.962325 0.327728 0.001772
H14 H 0.970685 0.388643 0.021191
O1 O 0.929(2) 0.2409(3) 0.0489(2)
O2 O 0.6168(11) 0.0561(3) 0.0739(2)
O3 O 0.7709(11) 0.0328(2) 0.0434(4)
Gd11_2 Gd 1.000000 0.500000 0.05643(2)
O22 O 0.3133(12) 0.0267(3) 0.0790(2)
O27 O 0.4436(15) 0.0419(3) 0.0247(2)
C3 C 0.8743(15) 0.2016(3) 0.9869(3)
H2 H 0.813787 0.180248 0.992099
C4 C 0.8853(15) 0.2088(3) 0.9607(3)
C5 C 0.9667(13) 0.2426(3) 0.9536(3)
H3 H 0.970072 0.250393 0.936517
C15 C 0.7939(17) 0.1874(5) 0.9425(3)
C16 C 0.8326(16) 0.1921(3) 0.9137(3)
C17 C 0.9926(16) 0.1943(4) 0.9051(3)
C19 C 0.8865(15) 0.2035(4) 0.8611(3)
C20 C 0.7320(16) 0.1993(4) 0.8696(3)
H10 H 0.646077 0.200149 0.858082
C21 C 0.7023(18) 0.1934(4) 0.8967(3)
H11 H 0.597199 0.190414 0.902797
C22 C 0.9178(15) 0.2133(4) 0.8338(3)
O4 O 0.6923(13) 0.1652(3) 0.9485(2)
O6 O 0.8096(14) 0.2142(3) 0.8174(2)
C64 C 0.571(4) 0.0561(11) 0.9520(7)
H37 H 0.575766 0.065224 0.934599
H38 H 0.508216 0.032726 0.952711
H39 H 0.520696 0.075523 0.962613
C65 C 0.759(2) 0.0357(7) 0.9848(4)
O20 O 0.8992(13) 0.0307(3) 0.9935(2)
N2 N 0.733(2) 0.0485(6) 0.9613(3)
C66 C 0.859(4) 0.0582(10) 0.9427(7)
H40 H 0.810183 0.063568 0.926381
H41 H 0.932138 0.036700 0.941039
H42 H 0.917450 0.080557 0.948529
Gd5 Gd 0.750000 0.250000 0.78096(2)
H43 H 0.655689 0.0292531 0.997065
Gd1_4 Gd 1.000000 1.000000 0.03096(2)
Gd2_2 Gd 0.500000 1.000000 0.05643(2)
C35 C 0.0556(19) 0.7770(5) 0.0052(3)
C40 C 0.079(2) 0.7847(4) 0.0334(3)
C41 C 0.120(2) 0.8251(4) 0.0414(4)
C42 C 0.224(2) 0.8305(5) 0.0604(4)
H25 H 0.264140 0.809537 0.069679
C43 C 0.2717(18) 0.8677(4) 0.0663(3)
H26 H 0.348036 0.871855 0.079195
C44 C 0.2068(16) 0.8991(4) 0.0533(3)
C45 C 0.0935(15) 0.8926(4) 0.0344(3)
H27 H 0.046471 0.913334 0.025738
C46 C 0.0499(18) 0.8543(4) 0.0283(3)
C47 C 0.2721(14) 0.9388(4) 0.0570(3)
H34 H 0.037675 0.672272 0.001772
H35 H 0.029315 0.611357 0.021191
O11 O 0.071(2) 0.7591(3) 0.0489(2)
O12 O 0.3832(11) 0.9439(3) 0.0739(2)
O23 O 0.6867(12) 0.9733(3) 0.0790(2)
O25 O 0.9404(14) 0.9642(3) 0.0674(2)
O26 O 0.5564(15) 0.9581(3) 0.0247(2)
O28 O 0.8203(12) 0.9585(3) 0.0168(2)
C36 C 0.1257(15) 0.7984(3) 0.9869(3)
H23 H 0.186213 0.819752 0.992099
C37 C 0.1147(15) 0.7912(3) 0.9607(3)
C38 C 0.0333(13) 0.7574(3) 0.9536(3)
H24 H 0.029928 0.749607 0.936517
C48 C 0.2061(17) 0.8126(5) 0.9425(3)
C49 C 0.1674(16) 0.8079(3) 0.9137(3)
C50 C 0.0074(16) 0.8057(4) 0.9051(3)
C52 C 0.1135(15) 0.7965(4) 0.8611(3)
C53 C 0.2680(16) 0.8007(4) 0.8696(3)
H31 H 0.353923 0.799851 0.858082
C54 C 0.2977(18) 0.8066(4) 0.8967(3)
H32 H 0.402801 0.809586 0.902797
C55 C 0.0822(15) 0.7867(4) 0.8338(3)
O14 O 0.3077(13) 0.8348(3) 0.9485(2)
O16 O 0.1904(14) 0.7858(3) 0.8174(2)
Gd4 Gd 0.250000 0.750000 0.78096(2)
H22 H 0.918974 0.727658 0.010137
H28 H 0.973998 0.849292 0.015565
C59 C 0.9521(16) 0.6185(4) 0.0091(3)
C60 C 0.8287(15) 0.5941(4) 0.0027(3)
C63 C 0.8160(16) 0.5569(4) 0.0160(3)
O18 O 0.9436(15) 0.5419(3) 0.0247(2)
O19 O 0.6797(12) 0.5415(3) 0.0168(2)
C34 C 0.9676(15) 0.7434(3) 0.9979(3)
C39 C 0.9569(14) 0.7353(4) 0.9727(3)
H29 H 0.920407 0.808121 0.916352
C51 C 0.9849(16) 0.7995(4) 0.8784(3)
H30 H 0.879874 0.797405 0.872148
C56 C 0.8668(13) 0.7008(3) 0.9631(3)
C57 C 0.7314(15) 0.6397(4) 0.9726(3)
H33 H 0.654654 0.647245 0.960557
C58 C 0.9588(15) 0.6544(4) 0.9970(3)
C61 C 0.7194(15) 0.6040(4) 0.9841(3)
H36 H 0.638084 0.586812 0.979350
C62 C 0.8520(13) 0.6633(3) 0.9786(3)
O15 O 0.9367(12) 0.7767(3) 0.8290(2)
O17 O 0.8142(12) 0.7009(3) 0.9407(2)
Gd8 Gd 0.750000 0.750000 0.80643(2)
Gd1_5 Gd 0.250000 0.250000 0.28096(2)
C2_2 C 0.1944(19) 0.0270(5) 0.2552(3)
C3_2 C 0.1243(15) 0.0484(3) 0.2369(3)
H2_2 H 0.063787 0.069752 0.242099
C4_2 C 0.1353(15) 0.0412(3) 0.2107(3)
C5_2 C 0.2167(13) 0.0074(3) 0.2036(3)
C7_2 C 0.171(2) 0.0347(4) 0.2834(3)
C8_2 C 0.130(2) 0.0751(4) 0.2914(4)
C9_2 C 0.026(2) 0.0805(5) 0.3104(4)
C11_2 C 0.0432(16) 0.1491(4) 0.3033(3)
C12_2 C 0.1565(15) 0.1426(4) 0.2844(3)
H6_2 H 0.203529 0.163334 0.275738
C13_2 C 0.2001(18) 0.1043(4) 0.2783(3)
H7_2 H 0.276002 0.099292 0.265565
C15_2 C 0.0439(17) 0.0626(5) 0.1925(3)
C16_2 C 0.0826(16) 0.0579(3) 0.1637(3)
C17_2 C 0.2426(16) 0.0557(4) 0.1551(3)
H8_2 H 0.329593 0.058121 0.166352
C18_2 C 0.2651(16) 0.0495(4) 0.1284(3)
H9_2 H 0.370126 0.047405 0.122148
C19_2 C 0.1365(15) 0.0465(4) 0.1111(3)
C22_2 C 0.1678(15) 0.0367(4) 0.0838(3)
C31_2 C 0.679(4) 0.3061(11) 0.2020(7)
H16_2 H 0.674234 0.315224 0.184599
H17_2 H 0.741784 0.282726 0.202711
H18_2 H 0.729304 0.325523 0.212613
C32_2 C 0.491(2) 0.2857(7) 0.2348(4)
O1_2 O 0.179(2) 0.0091(3) 0.2989(2)
O3_2 O 0.0209(11) 0.2172(2) 0.2934(4)
O10_2 O 0.3508(13) 0.2807(3) 0.2435(2)
N1_2 N 0.517(2) 0.2985(6) 0.2113(3)
C33_2 C 0.391(4) 0.3082(10) 0.1927(7)
H19_2 H 0.439817 0.313568 0.176381
H20_2 H 0.317862 0.286700 0.191039
H21_2 H 0.332550 0.330557 0.198529
C65_2 C 0.009(2) 0.2143(7) 0.2348(4)
O20_2 O 0.1492(13) 0.2193(3) 0.2435(2)
C66_2 C 0.109(4) 0.1918(10) 0.1927(7)
H40_2 H 0.060183 0.186432 0.176381
H41_2 H 0.182138 0.213300 0.191039
H42_2 H 0.167450 0.169443 0.198529
O21_2 O 0.4791(11) 0.2828(2) 0.2934(4)
O24_2 O 0.3096(14) 0.2142(3) 0.3174(2)
O25_2 O 0.1904(14) 0.2858(3) 0.3174(2)
O28_2 O 0.0703(12) 0.2915(3) 0.2668(2)
O29_2 O 0.4297(12) 0.2085(3) 0.2668(2)
H44_2 H 0.594311 0.279253 0.247065
C1_2 C 0.2824(15) 0.9934(3) 0.2479(3)
H1_2 H 0.331026 0.977658 0.260137
H3_2 H 0.220072 0.999607 0.186517
C6_2 C 0.2931(14) 0.9853(4) 0.2227(3)
C23_2 C 0.3832(13) 0.9508(3) 0.2131(3)
C24_2 C 0.5186(15) 0.8897(4) 0.2226(3)
H12_2 H 0.595346 0.897245 0.210557
C25_2 C 0.2912(15) 0.9044(4) 0.2470(3)
H13_2 H 0.212325 0.922272 0.251772
C26_2 C 0.2979(16) 0.8685(4) 0.2591(3)
H14_2 H 0.220685 0.861357 0.271191
C27_2 C 0.4213(15) 0.8441(4) 0.2527(3)
C28_2 C 0.5306(15) 0.8540(4) 0.2341(3)
H15_2 H 0.611916 0.836812 0.229350
C29_2 C 0.3980(13) 0.9133(3) 0.2286(3)
C30_2 C 0.4340(16) 0.8069(4) 0.2660(3)
O7_2 O 0.4358(12) 0.9509(3) 0.1907(2)
O8_2 O 0.3064(15) 0.7919(3) 0.2747(2)
O9_2 O 0.5703(12) 0.7915(3) 0.2668(2)
Gd7_2 Gd 0.750000 0.750000 0.28096(2)
Gd11_3 Gd 0.250000 0.750000 0.30643(2)
Gd2_3 Gd 0.750000 0.250000 0.30643(2)
H4_2 H 0.985860 0.059537 0.319679
C10_2 C 0.9783(18) 0.1177(4) 0.3163(3)
H5_2 H 0.901964 0.121855 0.329195
C14_2 C 0.9779(14) 0.1888(4) 0.3070(3)
C20_2 C 0.9820(16) 0.0507(4) 0.1196(3)
H10_2 H 0.896077 0.049851 0.108082
C21_2 C 0.9523(18) 0.0566(4) 0.1467(3)
H11_2 H 0.847199 0.059586 0.152797
O2_2 O 0.8668(11) 0.1939(3) 0.3239(2)
O4_2 O 0.9423(13) 0.0848(3) 0.1985(2)
C34_2 C 0.2176(15) 0.5066(3) 0.2479(3)
H22_2 H 0.168974 0.522342 0.260137
C35_2 C 0.3056(19) 0.4730(5) 0.2552(3)
C36_2 C 0.3757(15) 0.4516(3) 0.2369(3)
H23_2 H 0.436213 0.430248 0.242099
C37_2 C 0.3647(15) 0.4588(3) 0.2107(3)
C38_2 C 0.2833(13) 0.4926(3) 0.2036(3)
H24_2 H 0.279928 0.500393 0.186517
C39_2 C 0.2069(14) 0.5147(4) 0.2227(3)
C40_2 C 0.329(2) 0.4653(4) 0.2834(3)
C41_2 C 0.370(2) 0.4249(4) 0.2914(4)
C42_2 C 0.474(2) 0.4195(5) 0.3104(4)
H25_2 H 0.514140 0.440463 0.319679
C43_2 C 0.5217(18) 0.3823(4) 0.3163(3)
H26_2 H 0.598036 0.378145 0.329195
C44_2 C 0.4568(16) 0.3509(4) 0.3033(3)
C45_2 C 0.3435(15) 0.3574(4) 0.2844(3)
H27_2 H 0.296471 0.336666 0.275738
C46_2 C 0.2999(18) 0.3957(4) 0.2783(3)
H28_2 H 0.223998 0.400708 0.265565
C47_2 C 0.5221(14) 0.3112(4) 0.3070(3)
C48_2 C 0.4561(17) 0.4374(5) 0.1925(3)
C49_2 C 0.4174(16) 0.4421(3) 0.1637(3)
C50_2 C 0.2574(16) 0.4443(4) 0.1551(3)
H29_2 H 0.170407 0.441879 0.166352
C51_2 C 0.2349(16) 0.4505(4) 0.1284(3)
H30_2 H 0.129874 0.452595 0.122148
C52_2 C 0.3635(15) 0.4535(4) 0.1111(3)
C53_2 C 0.5180(16) 0.4493(4) 0.1196(3)
H31_2 H 0.603923 0.450149 0.108082
C54_2 C 0.5477(18) 0.4434(4) 0.1467(3)
H32_2 H 0.652801 0.440414 0.152797
C55_2 C 0.3322(15) 0.4633(4) 0.0838(3)
C56_2 C 0.1168(13) 0.5492(3) 0.2131(3)
C58_2 C 0.2088(15) 0.5956(4) 0.2470(3)
H34_2 H 0.287675 0.577728 0.251772
C59_2 C 0.2021(16) 0.6315(4) 0.2591(3)
H35_2 H 0.279315 0.638643 0.271191
C60_2 C 0.0787(15) 0.6559(4) 0.2527(3)
C62_2 C 0.1020(13) 0.5867(3) 0.2286(3)
C63_2 C 0.0660(16) 0.6931(4) 0.2660(3)
O11_2 O 0.321(2) 0.4909(3) 0.2989(2)
O12_2 O 0.6332(11) 0.3061(3) 0.3239(2)
O14_2 O 0.5577(13) 0.4152(3) 0.1985(2)
O15_2 O 0.1867(12) 0.4733(3) 0.0790(2)
O16_2 O 0.4404(14) 0.4642(3) 0.0674(2)
O17_2 O 0.0642(12) 0.5491(3) 0.1907(2)
O18_2 O 0.1936(15) 0.7081(3) 0.2747(2)
C64_2 C 0.821(4) 0.1939(11) 0.2020(7)
H37_2 H 0.825766 0.184776 0.184599
H38_2 H 0.758216 0.217274 0.202711
H39_2 H 0.770696 0.174477 0.212613
N2_2 N 0.983(2) 0.2015(6) 0.2113(3)
O22_2 O 0.5633(12) 0.2233(3) 0.3290(2)
O23_2 O 0.9367(12) 0.2767(3) 0.3290(2)
O26_2 O 0.8064(15) 0.2919(3) 0.2747(2)
O27_2 O 0.6936(15) 0.2081(3) 0.2747(2)
H43_2 H 0.905689 0.220747 0.247065
C57_2 C 0.9814(15) 0.6103(4) 0.2226(3)
H33_2 H 0.904654 0.602755 0.210557
C61_2 C 0.9694(15) 0.6460(4) 0.2341(3)
H36_2 H 0.888084 0.663188 0.229350
O19_2 O 0.9297(12) 0.7085(3) 0.2668(2)
Gd7_3 Gd 0.500000 -0.000000 0.53096(2)
Gd11_4 Gd 0.000000 -0.000000 0.55643(2)
Gd1_6 Gd 0.000000 0.500000 0.53096(2)
C1_3 C 0.0324(15) 0.7566(3) 0.4979(3)
H1_3 H 0.081026 0.772342 0.510137
C6_3 C 0.0431(14) 0.7647(4) 0.4727(3)
H7_3 H 0.026002 0.650708 0.515565
H8_3 H 0.079593 0.691879 0.416352
C18_3 C 0.0151(16) 0.7005(4) 0.3784(3)
H9_3 H 0.120126 0.702595 0.372148
C23_3 C 0.1332(13) 0.7992(3) 0.4631(3)
C24_3 C 0.2686(15) 0.8603(4) 0.4726(3)
H12_3 H 0.345346 0.852755 0.460557
C25_3 C 0.0412(15) 0.8456(4) 0.4970(3)
C26_3 C 0.0479(16) 0.8815(4) 0.5091(3)
C27_3 C 0.1713(15) 0.9059(4) 0.5027(3)
C28_3 C 0.2806(15) 0.8960(4) 0.4841(3)
H15_3 H 0.361916 0.913188 0.479350
C29_3 C 0.1480(13) 0.8367(3) 0.4786(3)
C30_3 C 0.1840(16) 0.9431(4) 0.5160(3)
C31_3 C 0.429(4) 0.4439(11) 0.4520(7)
H16_3 H 0.424234 0.434776 0.434599
H17_3 H 0.491784 0.467274 0.452711
H18_3 H 0.479304 0.424477 0.462613
C32_3 C 0.241(2) 0.4643(7) 0.4848(4)
O5_2 O 0.0633(12) 0.7233(3) 0.3290(2)
O7_3 O 0.1858(12) 0.7991(3) 0.4407(2)
O8_3 O 0.0564(15) 0.9581(3) 0.5247(2)
O9_3 O 0.3203(12) 0.9585(3) 0.5168(2)
O10_3 O 0.1008(13) 0.4693(3) 0.4935(2)
N1_3 N 0.267(2) 0.4515(6) 0.4613(3)
C33_3 C 0.141(4) 0.4418(10) 0.4427(7)
H19_3 H 0.189817 0.436432 0.426381
H20_3 H 0.067862 0.463300 0.441039
H21_3 H 0.082550 0.419443 0.448529
Gd7_4 Gd 0.500000 1.000000 0.53096(2)
Gd11_5 Gd 0.000000 1.000000 0.55643(2)
O21_3 O 0.2291(11) 0.4672(2) 0.5434(4)
O24_3 O 0.0596(14) 0.5358(3) 0.5674(2)
O29_3 O 0.1797(12) 0.5415(3) 0.5168(2)
H44_3 H 0.344311 0.470747 0.497065
Gd11_6 Gd 1.000000 -0.000000 0.55643(2)
Gd1_7 Gd 1.000000 0.500000 0.53096(2)
Gd2_4 Gd 0.500000 0.500000 0.55643(2)
C2_3 C 0.9444(19) 0.7230(5) 0.5052(3)
C3_3 C 0.8743(15) 0.7016(3) 0.4869(3)
H2_3 H 0.813787 0.680248 0.492099
C4_3 C 0.8853(15) 0.7088(3) 0.4607(3)
C5_3 C 0.9667(13) 0.7426(3) 0.4536(3)
H3_3 H 0.970072 0.750393 0.436517
C7_3 C 0.921(2) 0.7153(4) 0.5334(3)
C8_3 C 0.880(2) 0.6749(4) 0.5414(4)
C9_3 C 0.776(2) 0.6695(5) 0.5604(4)
H4_3 H 0.735860 0.690463 0.569679
C10_3 C 0.7283(18) 0.6323(4) 0.5663(3)
H5_3 H 0.651964 0.628145 0.579195
C11_3 C 0.7932(16) 0.6009(4) 0.5533(3)
C12_3 C 0.9065(15) 0.6074(4) 0.5344(3)
H6_3 H 0.953529 0.586666 0.525738
C13_3 C 0.9501(18) 0.6457(4) 0.5283(3)
C14_3 C 0.7279(14) 0.5612(4) 0.5570(3)
C15_3 C 0.7939(17) 0.6874(5) 0.4425(3)
C16_3 C 0.8326(16) 0.6921(3) 0.4137(3)
C17_3 C 0.9926(16) 0.6943(4) 0.4051(3)
C19_3 C 0.8865(15) 0.7035(4) 0.3611(3)
C20_3 C 0.7320(16) 0.6993(4) 0.3696(3)
H10_3 H 0.646077 0.700149 0.358082
C21_3 C 0.7023(18) 0.6934(4) 0.3967(3)
H11_3 H 0.597199 0.690414 0.402797
C22_3 C 0.9178(15) 0.7133(4) 0.3338(3)
H13_3 H 0.962325 0.827728 0.501772
H14_3 H 0.970685 0.888643 0.521191
O1_3 O 0.929(2) 0.7409(3) 0.5489(2)
O2_3 O 0.6168(11) 0.5561(3) 0.5739(2)
O3_3 O 0.7709(11) 0.5328(2) 0.5434(4)
O4_3 O 0.6923(13) 0.6652(3) 0.4485(2)
O6_2 O 0.8096(14) 0.7142(3) 0.3174(2)
C35_3 C 0.0556(19) 0.2770(5) 0.5052(3)
C36_3 C 0.1257(15) 0.2984(3) 0.4869(3)
H23_3 H 0.186213 0.319752 0.492099
C37_3 C 0.1147(15) 0.2912(3) 0.4607(3)
C38_3 C 0.0333(13) 0.2574(3) 0.4536(3)
H24_3 H 0.029928 0.249607 0.436517
C40_3 C 0.079(2) 0.2847(4) 0.5334(3)
C41_3 C 0.120(2) 0.3251(4) 0.5414(4)
C42_3 C 0.224(2) 0.3305(5) 0.5604(4)
H25_3 H 0.264140 0.309537 0.569679
C43_3 C 0.2717(18) 0.3677(4) 0.5663(3)
H26_3 H 0.348036 0.371855 0.579195
C44_3 C 0.2068(16) 0.3991(4) 0.5533(3)
C45_3 C 0.0935(15) 0.3926(4) 0.5344(3)
H27_3 H 0.046471 0.413334 0.525738
C46_3 C 0.0499(18) 0.3543(4) 0.5283(3)
C47_3 C 0.2721(14) 0.4388(4) 0.5570(3)
C48_3 C 0.2061(17) 0.3126(5) 0.4425(3)
C49_3 C 0.1674(16) 0.3079(3) 0.4137(3)
C50_3 C 0.0074(16) 0.3057(4) 0.4051(3)
C52_3 C 0.1135(15) 0.2965(4) 0.3611(3)
C53_3 C 0.2680(16) 0.3007(4) 0.3696(3)
H31_3 H 0.353923 0.299851 0.358082
C54_3 C 0.2977(18) 0.3066(4) 0.3967(3)
H32_3 H 0.402801 0.309586 0.402797
C55_3 C 0.0822(15) 0.2867(4) 0.3338(3)
H34_3 H 0.037675 0.172272 0.501772
H35_3 H 0.029315 0.111357 0.521191
O11_3 O 0.071(2) 0.2591(3) 0.5489(2)
O12_3 O 0.3832(11) 0.4439(3) 0.5739(2)
O14_3 O 0.3077(13) 0.3348(3) 0.4485(2)
C64_3 C 0.571(4) 0.5561(11) 0.4520(7)
H37_3 H 0.575766 0.565224 0.434599
H38_3 H 0.508216 0.532726 0.452711
H39_3 H 0.520696 0.575523 0.462613
C65_3 C 0.759(2) 0.5357(7) 0.4848(4)
O20_3 O 0.8992(13) 0.5307(3) 0.4935(2)
N2_3 N 0.733(2) 0.5485(6) 0.4613(3)
C66_3 C 0.859(4) 0.5582(10) 0.4427(7)
H40_3 H 0.810183 0.563568 0.426381
H41_3 H 0.932138 0.536700 0.441039
H42_3 H 0.917450 0.580557 0.448529
Gd11_7 Gd 1.000000 1.000000 0.55643(2)
O22_3 O 0.3133(12) 0.5267(3) 0.5790(2)
O23_3 O 0.6867(12) 0.4733(3) 0.5790(2)
O25_3 O 0.9404(14) 0.4642(3) 0.5674(2)
O26_3 O 0.5564(15) 0.4581(3) 0.5247(2)
O27_3 O 0.4436(15) 0.5419(3) 0.5247(2)
O28_3 O 0.8203(12) 0.4585(3) 0.5168(2)
H43_3 H 0.655689 0.529253 0.497065
C34_3 C 0.9676(15) 0.2434(3) 0.4979(3)
H22_3 H 0.918974 0.227658 0.510137
C39_3 C 0.9569(14) 0.2353(4) 0.4727(3)
H28_3 H 0.973998 0.349292 0.515565
H29_3 H 0.920407 0.308121 0.416352
C51_3 C 0.9849(16) 0.2995(4) 0.3784(3)
H30_3 H 0.879874 0.297405 0.372148
C56_3 C 0.8668(13) 0.2008(3) 0.4631(3)
C57_3 C 0.7314(15) 0.1397(4) 0.4726(3)
H33_3 H 0.654654 0.147245 0.460557
C58_3 C 0.9588(15) 0.1544(4) 0.4970(3)
C59_3 C 0.9521(16) 0.1185(4) 0.5091(3)
C60_3 C 0.8287(15) 0.0941(4) 0.5027(3)
C61_3 C 0.7194(15) 0.1040(4) 0.4841(3)
H36_3 H 0.638084 0.086812 0.479350
C62_3 C 0.8520(13) 0.1633(3) 0.4786(3)
C63_3 C 0.8160(16) 0.0569(4) 0.5160(3)
O17_3 O 0.8142(12) 0.2009(3) 0.4407(2)
O18_3 O 0.9436(15) 0.0419(3) 0.5247(2)
O19_3 O 0.6797(12) 0.0415(3) 0.5168(2)
C1_4 C 0.2824(15) 0.4934(3) 0.7479(3)
H1_4 H 0.331026 0.477658 0.760137
C2_4 C 0.1944(19) 0.5270(5) 0.7552(3)
C3_4 C 0.1243(15) 0.5484(3) 0.7369(3)
H2_4 H 0.063787 0.569752 0.742099
C4_4 C 0.1353(15) 0.5412(3) 0.7107(3)
C5_4 C 0.2167(13) 0.5074(3) 0.7036(3)
H3_4 H 0.220072 0.499607 0.686517
C6_4 C 0.2931(14) 0.4853(4) 0.7227(3)
C7_4 C 0.171(2) 0.5347(4) 0.7834(3)
C8_4 C 0.130(2) 0.5751(4) 0.7914(4)
C9_4 C 0.026(2) 0.5805(5) 0.8104(4)
C11_4 C 0.0432(16) 0.6491(4) 0.8033(3)
C12_4 C 0.1565(15) 0.6426(4) 0.7844(3)
H6_4 H 0.203529 0.663334 0.775738
C13_4 C 0.2001(18) 0.6043(4) 0.7783(3)
H7_4 H 0.276002 0.599292 0.765565
C15_4 C 0.0439(17) 0.5626(5) 0.6925(3)
C16_4 C 0.0826(16) 0.5579(3) 0.6637(3)
C17_4 C 0.2426(16) 0.5557(4) 0.6551(3)
H8_4 H 0.329593 0.558121 0.666352
C18_4 C 0.2651(16) 0.5495(4) 0.6284(3)
H9_4 H 0.370126 0.547405 0.622148
C19_4 C 0.1365(15) 0.5465(4) 0.6111(3)
C22_4 C 0.1678(15) 0.5367(4) 0.5838(3)
C23_4 C 0.3832(13) 0.4508(3) 0.7131(3)
C24_4 C 0.5186(15) 0.3897(4) 0.7226(3)
H12_4 H 0.595346 0.397245 0.710557
C25_4 C 0.2912(15) 0.4044(4) 0.7470(3)
H13_4 H 0.212325 0.422272 0.751772
C26_4 C 0.2979(16) 0.3685(4) 0.7591(3)
H14_4 H 0.220685 0.361357 0.771191
C27_4 C 0.4213(15) 0.3441(4) 0.7527(3)
C28_4 C 0.5306(15) 0.3540(4) 0.7341(3)
H15_4 H 0.611916 0.336812 0.729350
C29_4 C 0.3980(13) 0.4133(3) 0.7286(3)
C30_4 C 0.4340(16) 0.3069(4) 0.7660(3)
C31_4 C 0.679(4) 0.8061(11) 0.7020(7)
H16_4 H 0.674234 0.815224 0.684599
H17_4 H 0.741784 0.782726 0.702711
H18_4 H 0.729304 0.825523 0.712613
C32_4 C 0.491(2) 0.7857(7) 0.7348(4)
O1_4 O 0.179(2) 0.5091(3) 0.7989(2)
O3_4 O 0.0209(11) 0.7172(2) 0.7934(4)
O7_4 O 0.4358(12) 0.4509(3) 0.6907(2)
O8_4 O 0.3064(15) 0.2919(3) 0.7747(2)
O9_4 O 0.5703(12) 0.2915(3) 0.7668(2)
O10_4 O 0.3508(13) 0.7807(3) 0.7435(2)
N1_4 N 0.517(2) 0.7985(6) 0.7113(3)
C33_4 C 0.391(4) 0.8082(10) 0.6927(7)
H19_4 H 0.439817 0.813568 0.676381
H20_4 H 0.317862 0.786700 0.691039
H21_4 H 0.332550 0.830557 0.698529
C65_4 C 0.009(2) 0.7143(7) 0.7348(4)
O20_4 O 0.1492(13) 0.7193(3) 0.7435(2)
C66_4 C 0.109(4) 0.6918(10) 0.6927(7)
H40_4 H 0.060183 0.686432 0.676381
H41_4 H 0.182138 0.713300 0.691039
H42_4 H 0.167450 0.669443 0.698529
O21_4 O 0.4791(11) 0.7828(2) 0.7934(4)
O24_4 O 0.3096(14) 0.7142(3) 0.8174(2)
O28_4 O 0.0703(12) 0.7915(3) 0.7668(2)
O29_4 O 0.4297(12) 0.7085(3) 0.7668(2)
H44_4 H 0.594311 0.779253 0.747065
C34_4 C 0.2176(15) 0.0066(3) 0.7479(3)
H22_4 H 0.168974 0.022342 0.760137
H24_4 H 0.279928 0.000393 0.686517
C39_4 C 0.2069(14) 0.0147(4) 0.7227(3)
C56_4 C 0.1168(13) 0.0492(3) 0.7131(3)
C58_4 C 0.2088(15) 0.0956(4) 0.7470(3)
H34_4 H 0.287675 0.077728 0.751772
C59_4 C 0.2021(16) 0.1315(4) 0.7591(3)
H35_4 H 0.279315 0.138643 0.771191
C60_4 C 0.0787(15) 0.1559(4) 0.7527(3)
C62_4 C 0.1020(13) 0.0867(3) 0.7286(3)
C63_4 C 0.0660(16) 0.1931(4) 0.7660(3)
O17_4 O 0.0642(12) 0.0491(3) 0.6907(2)
O18_4 O 0.1936(15) 0.2081(3) 0.7747(2)
H4_4 H 0.985860 0.559537 0.819679
C10_4 C 0.9783(18) 0.6177(4) 0.8163(3)
H5_4 H 0.901964 0.621855 0.829195
C14_4 C 0.9779(14) 0.6888(4) 0.8070(3)
C20_4 C 0.9820(16) 0.5507(4) 0.6196(3)
H10_4 H 0.896077 0.549851 0.608082
C21_4 C 0.9523(18) 0.5566(4) 0.6467(3)
H11_4 H 0.847199 0.559586 0.652797
O2_4 O 0.8668(11) 0.6939(3) 0.8239(2)
O4_4 O 0.9423(13) 0.5848(3) 0.6985(2)
C35_4 C 0.3056(19) 0.9730(5) 0.7552(3)
C36_4 C 0.3757(15) 0.9516(3) 0.7369(3)
H23_4 H 0.436213 0.930248 0.742099
C37_4 C 0.3647(15) 0.9588(3) 0.7107(3)
C38_4 C 0.2833(13) 0.9926(3) 0.7036(3)
C40_4 C 0.329(2) 0.9653(4) 0.7834(3)
C41_4 C 0.370(2) 0.9249(4) 0.7914(4)
C42_4 C 0.474(2) 0.9195(5) 0.8104(4)
H25_4 H 0.514140 0.940463 0.819679
C43_4 C 0.5217(18) 0.8823(4) 0.8163(3)
H26_4 H 0.598036 0.878145 0.829195
C44_4 C 0.4568(16) 0.8509(4) 0.8033(3)
C45_4 C 0.3435(15) 0.8574(4) 0.7844(3)
H27_4 H 0.296471 0.836666 0.775738
C46_4 C 0.2999(18) 0.8957(4) 0.7783(3)
H28_4 H 0.223998 0.900708 0.765565
C47_4 C 0.5221(14) 0.8112(4) 0.8070(3)
C48_4 C 0.4561(17) 0.9374(5) 0.6925(3)
C49_4 C 0.4174(16) 0.9421(3) 0.6637(3)
C50_4 C 0.2574(16) 0.9443(4) 0.6551(3)
H29_4 H 0.170407 0.941879 0.666352
C51_4 C 0.2349(16) 0.9505(4) 0.6284(3)
H30_4 H 0.129874 0.952595 0.622148
C52_4 C 0.3635(15) 0.9535(4) 0.6111(3)
C53_4 C 0.5180(16) 0.9493(4) 0.6196(3)
H31_4 H 0.603923 0.950149 0.608082
C54_4 C 0.5477(18) 0.9434(4) 0.6467(3)
H32_4 H 0.652801 0.940414 0.652797
C55_4 C 0.3322(15) 0.9633(4) 0.5838(3)
O11_4 O 0.321(2) 0.9909(3) 0.7989(2)
O12_4 O 0.6332(11) 0.8061(3) 0.8239(2)
O14_4 O 0.5577(13) 0.9152(3) 0.6985(2)
O15_3 O 0.1867(12) 0.9733(3) 0.5790(2)
O16_3 O 0.4404(14) 0.9642(3) 0.5674(2)
C64_4 C 0.821(4) 0.6939(11) 0.7020(7)
H37_4 H 0.825766 0.684776 0.684599
H38_4 H 0.758216 0.717274 0.702711
H39_4 H 0.770696 0.674477 0.712613
N2_4 N 0.983(2) 0.7015(6) 0.7113(3)
O22_4 O 0.5633(12) 0.7233(3) 0.8290(2)
O26_4 O 0.8064(15) 0.7919(3) 0.7747(2)
O27_4 O 0.6936(15) 0.7081(3) 0.7747(2)
H43_4 H 0.905689 0.720747 0.747065
C57_4 C 0.9814(15) 0.1103(4) 0.7226(3)
H33_4 H 0.904654 0.102755 0.710557
C61_4 C 0.9694(15) 0.1460(4) 0.7341(3)
H36_4 H 0.888084 0.163188 0.729350
O19_4 O 0.9297(12) 0.2085(3) 0.7668(2)
C1_5 C 0.5324(15) 0.2566(3) 0.4979(3)
H1_5 H 0.581026 0.272342 0.510137
C2_5 C 0.4444(19) 0.2230(5) 0.5052(3)
C3_5 C 0.3743(15) 0.2016(3) 0.4869(3)
H2_5 H 0.313787 0.180248 0.492099
C4_5 C 0.3853(15) 0.2088(3) 0.4607(3)
C5_5 C 0.4667(13) 0.2426(3) 0.4536(3)
H3_5 H 0.470072 0.250393 0.436517
C6_5 C 0.5431(14) 0.2647(4) 0.4727(3)
C7_5 C 0.421(2) 0.2153(4) 0.5334(3)
C8_5 C 0.380(2) 0.1749(4) 0.5414(4)
C9_5 C 0.276(2) 0.1695(5) 0.5604(4)
H4_5 H 0.235860 0.190463 0.569679
C10_5 C 0.2283(18) 0.1323(4) 0.5663(3)
H5_5 H 0.151964 0.128145 0.579195
C11_5 C 0.2932(16) 0.1009(4) 0.5533(3)
C12_5 C 0.4065(15) 0.1074(4) 0.5344(3)
H6_5 H 0.453529 0.086666 0.525738
C13_5 C 0.4501(18) 0.1457(4) 0.5283(3)
H7_5 H 0.526002 0.150708 0.515565
C14_5 C 0.2279(14) 0.0612(4) 0.5570(3)
C15_5 C 0.2939(17) 0.1874(5) 0.4425(3)
C16_5 C 0.3326(16) 0.1921(3) 0.4137(3)
C17_5 C 0.4926(16) 0.1943(4) 0.4051(3)
H8_5 H 0.579593 0.191879 0.416352
C18_5 C 0.5151(16) 0.2005(4) 0.3784(3)
H9_5 H 0.620126 0.202595 0.372148
C19_5 C 0.3865(15) 0.2035(4) 0.3611(3)
C20_5 C 0.2320(16) 0.1993(4) 0.3696(3)
H10_5 H 0.146077 0.200149 0.358082
C21_5 C 0.2023(18) 0.1934(4) 0.3967(3)
H11_5 H 0.097199 0.190414 0.402797
C22_5 C 0.4178(15) 0.2133(4) 0.3338(3)
C23_5 C 0.6332(13) 0.2992(3) 0.4631(3)
C24_5 C 0.7686(15) 0.3603(4) 0.4726(3)
H12_5 H 0.845346 0.352755 0.460557
C25_5 C 0.5412(15) 0.3456(4) 0.4970(3)
H13_5 H 0.462325 0.327728 0.501772
C26_5 C 0.5479(16) 0.3815(4) 0.5091(3)
H14_5 H 0.470685 0.388643 0.521191
C27_5 C 0.6713(15) 0.4059(4) 0.5027(3)
C28_5 C 0.7806(15) 0.3960(4) 0.4841(3)
H15_5 H 0.861916 0.413188 0.479350
C29_5 C 0.6480(13) 0.3367(3) 0.4786(3)
C30_5 C 0.6840(16) 0.4431(4) 0.5160(3)
O1_5 O 0.429(2) 0.2409(3) 0.5489(2)
O2_5 O 0.1168(11) 0.0561(3) 0.5739(2)
O3_5 O 0.2709(11) 0.0328(2) 0.5434(4)
O4_5 O 0.1923(13) 0.1652(3) 0.4485(2)
O7_5 O 0.6858(12) 0.2991(3) 0.4407(2)
C64_5 C 0.071(4) 0.0561(11) 0.4520(7)
H37_5 H 0.075766 0.065224 0.434599
H38_5 H 0.008216 0.032726 0.452711
H39_5 H 0.020696 0.075523 0.462613
C65_5 C 0.259(2) 0.0357(7) 0.4848(4)
O20_5 O 0.3992(13) 0.0307(3) 0.4935(2)
N2_5 N 0.233(2) 0.0485(6) 0.4613(3)
C66_5 C 0.359(4) 0.0582(10) 0.4427(7)
H40_5 H 0.310183 0.063568 0.426381
H41_5 H 0.432138 0.036700 0.441039
H42_5 H 0.417450 0.080557 0.448529
O24_5 O 0.5596(14) 0.0358(3) 0.5674(2)
H43_5 H 0.155689 0.0292531 0.497065
C31_5 C 0.929(4) 0.9439(11) 0.4520(7)
H16_5 H 0.924234 0.934776 0.434599
H17_5 H 0.991784 0.967274 0.452711
H18_5 H 0.979304 0.924477 0.462613
C32_5 C 0.741(2) 0.9643(7) 0.4848(4)
O10_5 O 0.6008(13) 0.9693(3) 0.4935(2)
N1_5 N 0.767(2) 0.9515(6) 0.4613(3)
C33_5 C 0.641(4) 0.9418(10) 0.4427(7)
H19_5 H 0.689817 0.936432 0.426381
H20_5 H 0.567862 0.963300 0.441039
H21_5 H 0.582550 0.919443 0.448529
O21_5 O 0.7291(11) 0.9672(2) 0.5434(4)
H44_5 H 0.844311 0.970747 0.497065
O22_5 O 0.8133(12) 0.0267(3) 0.5790(2)
C34_5 C 0.4676(15) 0.7434(3) 0.4979(3)
H22_5 H 0.418974 0.727658 0.510137
C35_5 C 0.5556(19) 0.7770(5) 0.5052(3)
C36_5 C 0.6257(15) 0.7984(3) 0.4869(3)
H23_5 H 0.686213 0.819752 0.492099
C37_5 C 0.6147(15) 0.7912(3) 0.4607(3)
C38_5 C 0.5333(13) 0.7574(3) 0.4536(3)
H24_5 H 0.529928 0.749607 0.436517
C39_5 C 0.4569(14) 0.7353(4) 0.4727(3)
C40_5 C 0.579(2) 0.7847(4) 0.5334(3)
C41_5 C 0.620(2) 0.8251(4) 0.5414(4)
C42_5 C 0.724(2) 0.8305(5) 0.5604(4)
H25_5 H 0.764140 0.809537 0.569679
C43_5 C 0.7717(18) 0.8677(4) 0.5663(3)
H26_5 H 0.848036 0.871855 0.579195
C44_5 C 0.7068(16) 0.8991(4) 0.5533(3)
C45_5 C 0.5935(15) 0.8926(4) 0.5344(3)
H27_5 H 0.546471 0.913334 0.525738
C46_5 C 0.5499(18) 0.8543(4) 0.5283(3)
H28_5 H 0.473998 0.849292 0.515565
C47_5 C 0.7721(14) 0.9388(4) 0.5570(3)
C48_5 C 0.7061(17) 0.8126(5) 0.4425(3)
C49_5 C 0.6674(16) 0.8079(3) 0.4137(3)
C50_5 C 0.5074(16) 0.8057(4) 0.4051(3)
H29_5 H 0.420407 0.808121 0.416352
C51_5 C 0.4849(16) 0.7995(4) 0.3784(3)
H30_5 H 0.379874 0.797405 0.372148
C52_5 C 0.6135(15) 0.7965(4) 0.3611(3)
C53_5 C 0.7680(16) 0.8007(4) 0.3696(3)
H31_5 H 0.853923 0.799851 0.358082
C54_5 C 0.7977(18) 0.8066(4) 0.3967(3)
H32_5 H 0.902801 0.809586 0.402797
C55_5 C 0.5822(15) 0.7867(4) 0.3338(3)
C56_5 C 0.3668(13) 0.7008(3) 0.4631(3)
C57_5 C 0.2314(15) 0.6397(4) 0.4726(3)
H33_5 H 0.154654 0.647245 0.460557
C58_5 C 0.4588(15) 0.6544(4) 0.4970(3)
H34_5 H 0.537675 0.672272 0.501772
C59_5 C 0.4521(16) 0.6185(4) 0.5091(3)
H35_5 H 0.529315 0.611357 0.521191
C60_5 C 0.3287(15) 0.5941(4) 0.5027(3)
C61_5 C 0.2194(15) 0.6040(4) 0.4841(3)
H36_5 H 0.138084 0.586812 0.479350
C62_5 C 0.3520(13) 0.6633(3) 0.4786(3)
C63_5 C 0.3160(16) 0.5569(4) 0.5160(3)
O11_5 O 0.571(2) 0.7591(3) 0.5489(2)
O12_5 O 0.8832(11) 0.9439(3) 0.5739(2)
O14_5 O 0.8077(13) 0.8348(3) 0.4485(2)
O15_4 O 0.4367(12) 0.7767(3) 0.3290(2)
O16_4 O 0.6904(14) 0.7858(3) 0.3174(2)
O17_5 O 0.3142(12) 0.7009(3) 0.4407(2)
C31_6 C 0.179(4) 0.3061(11) 0.7020(7)
H16_6 H 0.174234 0.315224 0.684599
H17_6 H 0.241784 0.282726 0.702711
H18_6 H 0.229304 0.325523 0.712613
N1_6 N 0.017(2) 0.2985(6) 0.7113(3)
H44_6 H 0.0943109 0.279253 0.747065
C24_6 C 0.0186(15) 0.8897(4) 0.7226(3)
H12_6 H 0.095346 0.897245 0.710557
C28_6 C 0.0306(15) 0.8540(4) 0.7341(3)
H15_6 H 0.111916 0.836812 0.729350
C2_6 C 0.6944(19) 0.0270(5) 0.7552(3)
C3_6 C 0.6243(15) 0.0484(3) 0.7369(3)
H2_6 H 0.563787 0.069752 0.742099
C4_6 C 0.6353(15) 0.0412(3) 0.7107(3)
C5_6 C 0.7167(13) 0.0074(3) 0.7036(3)
C7_6 C 0.671(2) 0.0347(4) 0.7834(3)
C8_6 C 0.630(2) 0.0751(4) 0.7914(4)
C9_6 C 0.526(2) 0.0805(5) 0.8104(4)
H4_6 H 0.485860 0.059537 0.819679
C10_6 C 0.4783(18) 0.1177(4) 0.8163(3)
H5_6 H 0.401964 0.121855 0.829195
C11_6 C 0.5432(16) 0.1491(4) 0.8033(3)
C12_6 C 0.6565(15) 0.1426(4) 0.7844(3)
H6_6 H 0.703529 0.163334 0.775738
C13_6 C 0.7001(18) 0.1043(4) 0.7783(3)
H7_6 H 0.776002 0.099292 0.765565
C14_6 C 0.4779(14) 0.1888(4) 0.8070(3)
C15_6 C 0.5439(17) 0.0626(5) 0.6925(3)
C16_6 C 0.5826(16) 0.0579(3) 0.6637(3)
C17_6 C 0.7426(16) 0.0557(4) 0.6551(3)
H8_6 H 0.829593 0.058121 0.666352
C18_6 C 0.7651(16) 0.0495(4) 0.6284(3)
H9_6 H 0.870126 0.047405 0.622148
C19_6 C 0.6365(15) 0.0465(4) 0.6111(3)
C20_6 C 0.4820(16) 0.0507(4) 0.6196(3)
H10_6 H 0.396077 0.049851 0.608082
C21_6 C 0.4523(18) 0.0566(4) 0.6467(3)
H11_6 H 0.347199 0.059586 0.652797
C22_6 C 0.6678(15) 0.0367(4) 0.5838(3)
C32_6 C 0.991(2) 0.2857(7) 0.7348(4)
O1_6 O 0.679(2) 0.0091(3) 0.7989(2)
O2_6 O 0.3668(11) 0.1939(3) 0.8239(2)
O3_6 O 0.5209(11) 0.2172(2) 0.7934(4)
O4_6 O 0.4423(13) 0.0848(3) 0.6985(2)
O10_6 O 0.8508(13) 0.2807(3) 0.7435(2)
C33_6 C 0.891(4) 0.3082(10) 0.6927(7)
H19_6 H 0.939817 0.313568 0.676381
H20_6 H 0.817862 0.286700 0.691039
H21_6 H 0.832550 0.330557 0.698529
H25_6 H 0.014140 0.440463 0.819679
C43_6 C 0.0217(18) 0.3823(4) 0.8163(3)
H26_6 H 0.098036 0.378145 0.829195
C47_6 C 0.0221(14) 0.3112(4) 0.8070(3)
C53_6 C 0.0180(16) 0.4493(4) 0.6196(3)
H31_6 H 0.103923 0.450149 0.608082
C54_6 C 0.0477(18) 0.4434(4) 0.6467(3)
H32_6 H 0.152801 0.440414 0.652797
O12_6 O 0.1332(11) 0.3061(3) 0.8239(2)
O14_6 O 0.0577(13) 0.4152(3) 0.6985(2)
C64_6 C 0.321(4) 0.1939(11) 0.7020(7)
H37_6 H 0.325766 0.184776 0.684599
H38_6 H 0.258216 0.217274 0.702711
H39_6 H 0.270696 0.174477 0.712613
C65_6 C 0.509(2) 0.2143(7) 0.7348(4)
O20_6 O 0.6492(13) 0.2193(3) 0.7435(2)
N2_6 N 0.483(2) 0.2015(6) 0.7113(3)
C66_6 C 0.609(4) 0.1918(10) 0.6927(7)
H40_6 H 0.560183 0.186432 0.676381
H41_6 H 0.682138 0.213300 0.691039
H42_6 H 0.667450 0.169443 0.698529
O21_6 O 0.9791(11) 0.2828(2) 0.7934(4)
O23_4 O 0.4367(12) 0.2767(3) 0.8290(2)
O25_4 O 0.6904(14) 0.2858(3) 0.8174(2)
H43_6 H 0.405689 0.220747 0.747065
C1_6 C 0.7824(15) 0.9934(3) 0.7479(3)
H1_6 H 0.831026 0.977658 0.760137
H3_6 H 0.720072 0.999607 0.686517
C6_6 C 0.7931(14) 0.9853(4) 0.7227(3)
C23_6 C 0.8832(13) 0.9508(3) 0.7131(3)
C25_6 C 0.7912(15) 0.9044(4) 0.7470(3)
H13_6 H 0.712325 0.922272 0.751772
C26_6 C 0.7979(16) 0.8685(4) 0.7591(3)
H14_6 H 0.720685 0.861357 0.771191
C27_6 C 0.9213(15) 0.8441(4) 0.7527(3)
C29_6 C 0.8980(13) 0.9133(3) 0.7286(3)
C30_6 C 0.9340(16) 0.8069(4) 0.7660(3)
O7_6 O 0.9358(12) 0.9509(3) 0.6907(2)
C34_6 C 0.7176(15) 0.5066(3) 0.7479(3)
H22_6 H 0.668974 0.522342 0.760137
C35_6 C 0.8056(19) 0.4730(5) 0.7552(3)
C36_6 C 0.8757(15) 0.4516(3) 0.7369(3)
H23_6 H 0.936213 0.430248 0.742099
C37_6 C 0.8647(15) 0.4588(3) 0.7107(3)
C38_6 C 0.7833(13) 0.4926(3) 0.7036(3)
H24_6 H 0.779928 0.500393 0.686517
C39_6 C 0.7069(14) 0.5147(4) 0.7227(3)
C40_6 C 0.829(2) 0.4653(4) 0.7834(3)
C41_6 C 0.870(2) 0.4249(4) 0.7914(4)
C42_6 C 0.974(2) 0.4195(5) 0.8104(4)
C44_6 C 0.9568(16) 0.3509(4) 0.8033(3)
C45_6 C 0.8435(15) 0.3574(4) 0.7844(3)
H27_6 H 0.796471 0.336666 0.775738
C46_6 C 0.7999(18) 0.3957(4) 0.7783(3)
H28_6 H 0.723998 0.400708 0.765565
C48_6 C 0.9561(17) 0.4374(5) 0.6925(3)
C49_6 C 0.9174(16) 0.4421(3) 0.6637(3)
C50_6 C 0.7574(16) 0.4443(4) 0.6551(3)
H29_6 H 0.670407 0.441879 0.666352
C51_6 C 0.7349(16) 0.4505(4) 0.6284(3)
H30_6 H 0.629874 0.452595 0.622148
C52_6 C 0.8635(15) 0.4535(4) 0.6111(3)
C55_6 C 0.8322(15) 0.4633(4) 0.5838(3)
C56_6 C 0.6168(13) 0.5492(3) 0.7131(3)
C57_6 C 0.4814(15) 0.6103(4) 0.7226(3)
H33_6 H 0.404654 0.602755 0.710557
C58_6 C 0.7088(15) 0.5956(4) 0.7470(3)
H34_6 H 0.787675 0.577728 0.751772
C59_6 C 0.7021(16) 0.6315(4) 0.7591(3)
H35_6 H 0.779315 0.638643 0.771191
C60_6 C 0.5787(15) 0.6559(4) 0.7527(3)
C61_6 C 0.4694(15) 0.6460(4) 0.7341(3)
H36_6 H 0.388084 0.663188 0.729350
C62_6 C 0.6020(13) 0.5867(3) 0.7286(3)
C63_6 C 0.5660(16) 0.6931(4) 0.7660(3)
O11_6 O 0.821(2) 0.4909(3) 0.7989(2)
O17_6 O 0.5642(12) 0.5491(3) 0.6907(2)
H1_7 H 0.581026 0.772342 0.010137
C2_7 C 0.4444(19) 0.7230(5) 0.0052(3)
C7_7 C 0.421(2) 0.7153(4) 0.0334(3)
C8_7 C 0.380(2) 0.6749(4) 0.0414(4)
C9_7 C 0.276(2) 0.6695(5) 0.0604(4)
H4_7 H 0.235860 0.690463 0.069679
C10_7 C 0.2283(18) 0.6323(4) 0.0663(3)
H5_7 H 0.151964 0.628145 0.079195
C11_7 C 0.2932(16) 0.6009(4) 0.0533(3)
C12_7 C 0.4065(15) 0.6074(4) 0.0344(3)
H6_7 H 0.453529 0.586666 0.025738
C13_7 C 0.4501(18) 0.6457(4) 0.0283(3)
H7_7 H 0.526002 0.650708 0.015565
C14_7 C 0.2279(14) 0.5612(4) 0.0570(3)
H13_7 H 0.462325 0.827728 0.001772
C26_7 C 0.5479(16) 0.8815(4) 0.0091(3)
H14_7 H 0.470685 0.888643 0.021191
C27_7 C 0.6713(15) 0.9059(4) 0.0027(3)
C30_7 C 0.6840(16) 0.9431(4) 0.0160(3)
O1_7 O 0.429(2) 0.7409(3) 0.0489(2)
O2_7 O 0.1168(11) 0.5561(3) 0.0739(2)
O3_7 O 0.2709(11) 0.5328(2) 0.0434(4)
O21_7 O 0.7291(11) 0.4672(2) 0.0434(4)
O24_6 O 0.5596(14) 0.5358(3) 0.0674(2)
C1_7 C 0.5324(15) 0.7566(3) 0.9979(3)
C3_7 C 0.3743(15) 0.7016(3) 0.9869(3)
H2_7 H 0.313787 0.680248 0.992099
C4_7 C 0.3853(15) 0.7088(3) 0.9607(3)
C5_7 C 0.4667(13) 0.7426(3) 0.9536(3)
H3_7 H 0.470072 0.750393 0.936517
C6_7 C 0.5431(14) 0.7647(4) 0.9727(3)
C15_7 C 0.2939(17) 0.6874(5) 0.9425(3)
C16_7 C 0.3326(16) 0.6921(3) 0.9137(3)
C17_7 C 0.4926(16) 0.6943(4) 0.9051(3)
H8_7 H 0.579593 0.691879 0.916352
C18_7 C 0.5151(16) 0.7005(4) 0.8784(3)
H9_7 H 0.620126 0.702595 0.872148
C19_7 C 0.3865(15) 0.7035(4) 0.8611(3)
C20_7 C 0.2320(16) 0.6993(4) 0.8696(3)
H10_7 H 0.146077 0.700149 0.858082
C21_7 C 0.2023(18) 0.6934(4) 0.8967(3)
H11_7 H 0.097199 0.690414 0.902797
C22_7 C 0.4178(15) 0.7133(4) 0.8338(3)
C23_7 C 0.6332(13) 0.7992(3) 0.9631(3)
C24_7 C 0.7686(15) 0.8603(4) 0.9726(3)
H12_7 H 0.845346 0.852755 0.960557
C25_7 C 0.5412(15) 0.8456(4) 0.9970(3)
C28_7 C 0.7806(15) 0.8960(4) 0.9841(3)
H15_7 H 0.861916 0.913188 0.979350
C29_7 C 0.6480(13) 0.8367(3) 0.9786(3)
C31_7 C 0.929(4) 0.4439(11) 0.9520(7)
H16_7 H 0.924234 0.434776 0.934599
H17_7 H 0.991784 0.467274 0.952711
H18_7 H 0.979304 0.424477 0.962613
C32_7 C 0.741(2) 0.4643(7) 0.9848(4)
O4_7 O 0.1923(13) 0.6652(3) 0.9485(2)
O7_7 O 0.6858(12) 0.7991(3) 0.9407(2)
O10_7 O 0.6008(13) 0.4693(3) 0.9935(2)
N1_7 N 0.767(2) 0.4515(6) 0.9613(3)
C33_7 C 0.641(4) 0.4418(10) 0.9427(7)
H19_7 H 0.689817 0.436432 0.926381
H20_7 H 0.567862 0.463300 0.941039
H21_7 H 0.582550 0.419443 0.948529
C64_7 C 0.071(4) 0.5561(11) 0.9520(7)
H37_7 H 0.075766 0.565224 0.934599
H38_7 H 0.008216 0.532726 0.952711
H39_7 H 0.020696 0.575523 0.962613
C65_7 C 0.259(2) 0.5357(7) 0.9848(4)
O20_7 O 0.3992(13) 0.5307(3) 0.9935(2)
N2_7 N 0.233(2) 0.5485(6) 0.9613(3)
C66_7 C 0.359(4) 0.5582(10) 0.9427(7)
H40_7 H 0.310183 0.563568 0.926381
H41_7 H 0.432138 0.536700 0.941039
H42_7 H 0.417450 0.580557 0.948529
H43_7 H 0.155689 0.529253 0.997065
H44_7 H 0.844311 0.470747 0.997065
H22_7 H 0.418974 0.227658 0.010137
C35_7 C 0.5556(19) 0.2770(5) 0.0052(3)
C40_7 C 0.579(2) 0.2847(4) 0.0334(3)
C41_7 C 0.620(2) 0.3251(4) 0.0414(4)
C42_7 C 0.724(2) 0.3305(5) 0.0604(4)
H25_7 H 0.764140 0.309537 0.069679
C43_7 C 0.7717(18) 0.3677(4) 0.0663(3)
H26_7 H 0.848036 0.371855 0.079195
C44_7 C 0.7068(16) 0.3991(4) 0.0533(3)
C45_7 C 0.5935(15) 0.3926(4) 0.0344(3)
H27_7 H 0.546471 0.413334 0.025738
C46_7 C 0.5499(18) 0.3543(4) 0.0283(3)
H28_7 H 0.473998 0.349292 0.015565
C47_7 C 0.7721(14) 0.4388(4) 0.0570(3)
H34_7 H 0.537675 0.172272 0.001772
C59_7 C 0.4521(16) 0.1185(4) 0.0091(3)
H35_7 H 0.529315 0.111357 0.021191
C60_7 C 0.3287(15) 0.0941(4) 0.0027(3)
C63_7 C 0.3160(16) 0.0569(4) 0.0160(3)
O11_7 O 0.571(2) 0.2591(3) 0.0489(2)
O12_7 O 0.8832(11) 0.4439(3) 0.0739(2)
O22_6 O 0.8133(12) 0.5267(3) 0.0790(2)
C34_7 C 0.4676(15) 0.2434(3) 0.9979(3)
C36_7 C 0.6257(15) 0.2984(3) 0.9869(3)
H23_7 H 0.686213 0.319752 0.992099
C37_7 C 0.6147(15) 0.2912(3) 0.9607(3)
C38_7 C 0.5333(13) 0.2574(3) 0.9536(3)
H24_7 H 0.529928 0.249607 0.936517
C39_7 C 0.4569(14) 0.2353(4) 0.9727(3)
C48_7 C 0.7061(17) 0.3126(5) 0.9425(3)
C49_7 C 0.6674(16) 0.3079(3) 0.9137(3)
C50_7 C 0.5074(16) 0.3057(4) 0.9051(3)
H29_7 H 0.420407 0.308121 0.916352
C51_7 C 0.4849(16) 0.2995(4) 0.8784(3)
H30_7 H 0.379874 0.297405 0.872148
C52_7 C 0.6135(15) 0.2965(4) 0.8611(3)
C53_7 C 0.7680(16) 0.3007(4) 0.8696(3)
H31_7 H 0.853923 0.299851 0.858082
C54_7 C 0.7977(18) 0.3066(4) 0.8967(3)
H32_7 H 0.902801 0.309586 0.902797
C55_7 C 0.5822(15) 0.2867(4) 0.8338(3)
C56_7 C 0.3668(13) 0.2008(3) 0.9631(3)
C57_7 C 0.2314(15) 0.1397(4) 0.9726(3)
H33_7 H 0.154654 0.147245 0.960557
C58_7 C 0.4588(15) 0.1544(4) 0.9970(3)
C61_7 C 0.2194(15) 0.1040(4) 0.9841(3)
H36_7 H 0.138084 0.086812 0.979350
C62_7 C 0.3520(13) 0.1633(3) 0.9786(3)
O14_7 O 0.8077(13) 0.3348(3) 0.9485(2)
O17_7 O 0.3142(12) 0.2009(3) 0.9407(2)
C24_8 C 0.0186(15) 0.3897(4) 0.2226(3)
H12_8 H 0.095346 0.397245 0.210557
C28_8 C 0.0306(15) 0.3540(4) 0.2341(3)
H15_8 H 0.111916 0.336812 0.229350
C31_8 C 0.179(4) 0.8061(11) 0.2020(7)
H16_8 H 0.174234 0.815224 0.184599
H17_8 H 0.241784 0.782726 0.202711
H18_8 H 0.229304 0.825523 0.212613
N1_8 N 0.017(2) 0.7985(6) 0.2113(3)
H44_8 H 0.0943109 0.779253 0.247065
C1_8 C 0.7824(15) 0.4934(3) 0.2479(3)
H1_8 H 0.831026 0.477658 0.260137
C2_8 C 0.6944(19) 0.5270(5) 0.2552(3)
C3_8 C 0.6243(15) 0.5484(3) 0.2369(3)
H2_8 H 0.563787 0.569752 0.242099
C4_8 C 0.6353(15) 0.5412(3) 0.2107(3)
C5_8 C 0.7167(13) 0.5074(3) 0.2036(3)
H3_8 H 0.720072 0.499607 0.186517
C6_8 C 0.7931(14) 0.4853(4) 0.2227(3)
C7_8 C 0.671(2) 0.5347(4) 0.2834(3)
C8_8 C 0.630(2) 0.5751(4) 0.2914(4)
C9_8 C 0.526(2) 0.5805(5) 0.3104(4)
H4_8 H 0.485860 0.559537 0.319679
C10_8 C 0.4783(18) 0.6177(4) 0.3163(3)
H5_8 H 0.401964 0.621855 0.329195
C11_8 C 0.5432(16) 0.6491(4) 0.3033(3)
C12_8 C 0.6565(15) 0.6426(4) 0.2844(3)
H6_8 H 0.703529 0.663334 0.275738
C13_8 C 0.7001(18) 0.6043(4) 0.2783(3)
H7_8 H 0.776002 0.599292 0.265565
C14_8 C 0.4779(14) 0.6888(4) 0.3070(3)
C15_8 C 0.5439(17) 0.5626(5) 0.1925(3)
C16_8 C 0.5826(16) 0.5579(3) 0.1637(3)
C17_8 C 0.7426(16) 0.5557(4) 0.1551(3)
H8_8 H 0.829593 0.558121 0.166352
C18_8 C 0.7651(16) 0.5495(4) 0.1284(3)
H9_8 H 0.870126 0.547405 0.122148
C19_8 C 0.6365(15) 0.5465(4) 0.1111(3)
C20_8 C 0.4820(16) 0.5507(4) 0.1196(3)
H10_8 H 0.396077 0.549851 0.108082
C21_8 C 0.4523(18) 0.5566(4) 0.1467(3)
H11_8 H 0.347199 0.559586 0.152797
C22_8 C 0.6678(15) 0.5367(4) 0.0838(3)
C23_8 C 0.8832(13) 0.4508(3) 0.2131(3)
C25_8 C 0.7912(15) 0.4044(4) 0.2470(3)
H13_8 H 0.712325 0.422272 0.251772
C26_8 C 0.7979(16) 0.3685(4) 0.2591(3)
H14_8 H 0.720685 0.361357 0.271191
C27_8 C 0.9213(15) 0.3441(4) 0.2527(3)
C29_8 C 0.8980(13) 0.4133(3) 0.2286(3)
C30_8 C 0.9340(16) 0.3069(4) 0.2660(3)
C32_8 C 0.991(2) 0.7857(7) 0.2348(4)
O1_8 O 0.679(2) 0.5091(3) 0.2989(2)
O2_8 O 0.3668(11) 0.6939(3) 0.3239(2)
O3_8 O 0.5209(11) 0.7172(2) 0.2934(4)
O4_8 O 0.4423(13) 0.5848(3) 0.1985(2)
O7_8 O 0.9358(12) 0.4509(3) 0.1907(2)
O10_8 O 0.8508(13) 0.7807(3) 0.2435(2)
C33_8 C 0.891(4) 0.8082(10) 0.1927(7)
H19_8 H 0.939817 0.813568 0.176381
H20_8 H 0.817862 0.786700 0.191039
H21_8 H 0.832550 0.830557 0.198529
H25_8 H 0.014140 0.940463 0.319679
C43_8 C 0.0217(18) 0.8823(4) 0.3163(3)
H26_8 H 0.098036 0.878145 0.329195
C47_8 C 0.0221(14) 0.8112(4) 0.3070(3)
C53_8 C 0.0180(16) 0.9493(4) 0.1196(3)
H31_8 H 0.103923 0.950149 0.108082
C54_8 C 0.0477(18) 0.9434(4) 0.1467(3)
H32_8 H 0.152801 0.940414 0.152797
O12_8 O 0.1332(11) 0.8061(3) 0.3239(2)
O14_8 O 0.0577(13) 0.9152(3) 0.1985(2)
C64_8 C 0.321(4) 0.6939(11) 0.2020(7)
H37_8 H 0.325766 0.684776 0.184599
H38_8 H 0.258216 0.717274 0.202711
H39_8 H 0.270696 0.674477 0.212613
C65_8 C 0.509(2) 0.7143(7) 0.2348(4)
O20_8 O 0.6492(13) 0.7193(3) 0.2435(2)
N2_8 N 0.483(2) 0.7015(6) 0.2113(3)
C66_8 C 0.609(4) 0.6918(10) 0.1927(7)
H40_8 H 0.560183 0.686432 0.176381
H41_8 H 0.682138 0.713300 0.191039
H42_8 H 0.667450 0.669443 0.198529
O21_8 O 0.9791(11) 0.7828(2) 0.2934(4)
H43_8 H 0.405689 0.720747 0.247065
C34_8 C 0.7176(15) 0.0066(3) 0.2479(3)
H22_8 H 0.668974 0.022342 0.260137
H24_8 H 0.779928 0.000393 0.186517
C39_8 C 0.7069(14) 0.0147(4) 0.2227(3)
C56_8 C 0.6168(13) 0.0492(3) 0.2131(3)
C57_8 C 0.4814(15) 0.1103(4) 0.2226(3)
H33_8 H 0.404654 0.102755 0.210557
C58_8 C 0.7088(15) 0.0956(4) 0.2470(3)
H34_8 H 0.787675 0.077728 0.251772
C59_8 C 0.7021(16) 0.1315(4) 0.2591(3)
H35_8 H 0.779315 0.138643 0.271191
C60_8 C 0.5787(15) 0.1559(4) 0.2527(3)
C61_8 C 0.4694(15) 0.1460(4) 0.2341(3)
H36_8 H 0.388084 0.163188 0.229350
C62_8 C 0.6020(13) 0.0867(3) 0.2286(3)
C63_8 C 0.5660(16) 0.1931(4) 0.2660(3)
O17_8 O 0.5642(12) 0.0491(3) 0.1907(2)
C35_8 C 0.8056(19) 0.9730(5) 0.2552(3)
C36_8 C 0.8757(15) 0.9516(3) 0.2369(3)
H23_8 H 0.936213 0.930248 0.242099
C37_8 C 0.8647(15) 0.9588(3) 0.2107(3)
C38_8 C 0.7833(13) 0.9926(3) 0.2036(3)
C40_8 C 0.829(2) 0.9653(4) 0.2834(3)
C41_8 C 0.870(2) 0.9249(4) 0.2914(4)
C42_8 C 0.974(2) 0.9195(5) 0.3104(4)
C44_8 C 0.9568(16) 0.8509(4) 0.3033(3)
C45_8 C 0.8435(15) 0.8574(4) 0.2844(3)
H27_8 H 0.796471 0.836666 0.275738
C46_8 C 0.7999(18) 0.8957(4) 0.2783(3)
H28_8 H 0.723998 0.900708 0.265565
C48_8 C 0.9561(17) 0.9374(5) 0.1925(3)
C49_8 C 0.9174(16) 0.9421(3) 0.1637(3)
C50_8 C 0.7574(16) 0.9443(4) 0.1551(3)
H29_8 H 0.670407 0.941879 0.166352
C51_8 C 0.7349(16) 0.9505(4) 0.1284(3)
H30_8 H 0.629874 0.952595 0.122148
C52_8 C 0.8635(15) 0.9535(4) 0.1111(3)
C55_8 C 0.8322(15) 0.9633(4) 0.0838(3)
O11_8 O 0.821(2) 0.9909(3) 0.2989(2)
loop_
_geom_bond_atom_site_label_1
_geom_bond_atom_site_label_2
_geom_bond_site_symmetry_1
_geom_bond_site_symmetry_2
C27 C26 1_555 1_555
C30 C27 1_555 1_555
O8 C30 1_555 1_555
O9 C30 1_555 1_555
Gd7 O9 1_555 1_555
Gd11 O8 1_555 1_555
O24 Gd1 1_555 1_555
O29 Gd1 1_555 1_555
C6 C1 1_555 1_555
H9 C18 1_555 1_555
C23 C6 1_555 1_555
C24 H12 1_555 1_555
C28 C24 1_555 1_555
H15 C28 1_555 1_555
C29 C23 1_555 1_555
O7 C23 1_555 1_555
Gd9 O5 1_555 1_555
C24 C29 1_555 1_555
C25 C29 1_555 1_555
O21 Gd1_2 1_555 1_555
C31 H16 1_555 1_555
H17 C31 1_555 1_555
H18 C31 1_555 1_555
C32 O10 1_555 1_555
N1 C31 1_555 1_555
C33 N1 1_555 1_555
H19 C33 1_555 1_555
H20 C33 1_555 1_555
H21 C33 1_555 1_555
C32 N1 1_555 1_555
C32 H44 1_555 1_555
Gd1_3 O3 1_555 1_555
Gd2 O2 1_555 1_555
C7 C2 1_555 1_555
C8 C7 1_555 1_555
C9 C8 1_555 1_555
H4 C9 1_555 1_555
C10 C9 1_555 1_555
H5 C10 1_555 1_555
C11 C10 1_555 1_555
C12 C11 1_555 1_555
H6 C12 1_555 1_555
C13 C8 1_555 1_555
C14 C11 1_555 1_555
O1 C7 1_555 1_555
O2 C14 1_555 1_555
O3 Gd2 1_555 1_555
O22 Gd2 1_555 1_555
O27 Gd2 1_555 1_555
C12 C13 1_555 1_555
C14 O3 1_555 1_555
H2 C3 1_555 1_555
C4 C3 1_555 1_555
C5 C4 1_555 1_555
H3 C5 1_555 1_555
C15 C4 1_555 1_555
C16 C15 1_555 1_555
C17 C16 1_555 1_555
C20 C19 1_555 1_555
H10 C20 1_555 1_555
C21 C16 1_555 1_555
H11 C21 1_555 1_555
C22 C19 1_555 1_555
O4 C15 1_555 1_555
O6 C22 1_555 1_555
C64 H37 1_555 1_555
H38 C64 1_555 1_555
H39 C64 1_555 1_555
C65 O20 1_555 1_555
N2 C64 1_555 1_555
C66 N2 1_555 1_555
H40 C66 1_555 1_555
H41 C66 1_555 1_555
H42 C66 1_555 1_555
Gd5 O6 1_555 1_555
C20 C21 1_555 1_555
C65 N2 1_555 1_555
C65 H43 1_555 1_555
C40 C35 1_555 1_555
C41 C40 1_555 1_555
C42 C41 1_555 1_555
H25 C42 1_555 1_555
C43 C42 1_555 1_555
H26 C43 1_555 1_555
C44 C43 1_555 1_555
C45 C44 1_555 1_555
H27 C45 1_555 1_555
C46 C41 1_555 1_555
C47 C44 1_555 1_555
O11 C40 1_555 1_555
O12 Gd2_2 1_555 1_555
O21 Gd2_2 1_555 1_555
O23 Gd2_2 1_555 1_555
O25 Gd1_4 1_555 1_555
O26 Gd2_2 1_555 1_555
O28 Gd1_4 1_555 1_555
C45 C46 1_555 1_555
C47 O12 1_555 1_555
C47 O21 1_555 1_555
H23 C36 1_555 1_555
C37 C36 1_555 1_555
C38 C37 1_555 1_555
H24 C38 1_555 1_555
C48 C37 1_555 1_555
C49 C48 1_555 1_555
C50 C49 1_555 1_555
C53 C52 1_555 1_555
H31 C53 1_555 1_555
C54 C49 1_555 1_555
H32 C54 1_555 1_555
C55 C52 1_555 1_555
O14 C48 1_555 1_555
O16 C55 1_555 1_555
Gd4 O16 1_555 1_555
C53 C54 1_555 1_555
C60 C59 1_555 1_555
C63 C60 1_555 1_555
O18 C63 1_555 1_555
O19 C63 1_555 1_555
Gd7 O19 1_555 1_555
Gd11_2 O18 1_555 1_555
C39 C34 1_555 1_555
H30 C51 1_555 1_555
C56 C39 1_555 1_555
C57 H33 1_555 1_555
C61 C57 1_555 1_555
H36 C61 1_555 1_555
C62 C56 1_555 1_555
O17 C56 1_555 1_555
Gd8 O15 1_555 1_555
C57 C62 1_555 1_555
C58 C62 1_555 1_555
Gd1_5 O3_2 1_555 1_555
C3_2 C2_2 1_555 1_555
H2_2 C3_2 1_555 1_555
C4_2 C3_2 1_555 1_555
C5_2 C4_2 1_555 1_555
C7_2 C2_2 1_555 1_555
C8_2 C7_2 1_555 1_555
C9_2 C8_2 1_555 1_555
C12_2 C11_2 1_555 1_555
H6_2 C12_2 1_555 1_555
C13_2 C8_2 1_555 1_555
H7_2 C13_2 1_555 1_555
C15_2 C4_2 1_555 1_555
C16_2 C15_2 1_555 1_555
C17_2 C16_2 1_555 1_555
H8_2 C17_2 1_555 1_555
C18_2 C17_2 1_555 1_555
H9_2 C18_2 1_555 1_555
C19_2 C18_2 1_555 1_555
C22_2 C19_2 1_555 1_555
C31_2 H16_2 1_555 1_555
H17_2 C31_2 1_555 1_555
H18_2 C31_2 1_555 1_555
C32_2 O10_2 1_555 1_555
O1_2 C7_2 1_555 1_555
O22 C22_2 1_555 1_555
O24 C22_2 1_555 1_555
O10_2 Gd1_5 1_555 1_555
N1_2 C31_2 1_555 1_555
C33_2 N1_2 1_555 1_555
H19_2 C33_2 1_555 1_555
H20_2 C33_2 1_555 1_555
H21_2 C33_2 1_555 1_555
C65_2 O20_2 1_555 1_555
O20_2 Gd1_5 1_555 1_555
H40_2 C66_2 1_555 1_555
H41_2 C66_2 1_555 1_555
H42_2 C66_2 1_555 1_555
O21_2 Gd1_5 1_555 1_555
O24_2 Gd1_5 1_555 1_555
O25_2 Gd1_5 1_555 1_555
O28_2 Gd1_5 1_555 1_555
O29_2 Gd1_5 1_555 1_555
C12_2 C13_2 1_555 1_555
C32_2 N1_2 1_555 1_555
C32_2 H44_2 1_555 1_555
C1_2 H1_2 1_555 1_555
C6_2 C1_2 1_555 1_555
C23_2 C6_2 1_555 1_555
C24_2 H12_2 1_555 1_555
C25_2 H13_2 1_555 1_555
C26_2 C25_2 1_555 1_555
H14_2 C26_2 1_555 1_555
C27_2 C26_2 1_555 1_555
C28_2 C24_2 1_555 1_555
H15_2 C28_2 1_555 1_555
C29_2 C23_2 1_555 1_555
C30_2 C27_2 1_555 1_555
O7_2 C23_2 1_555 1_555
O8_2 C30_2 1_555 1_555
O9_2 C30_2 1_555 1_555
Gd7_2 O9_2 1_555 1_555
Gd11_3 O8_2 1_555 1_555
C24_2 C29_2 1_555 1_555
C25_2 C29_2 1_555 1_555
C27_2 C28_2 1_555 1_555
Gd2_3 O2_2 1_555 1_555
H5_2 C10_2 1_555 1_555
H10_2 C20_2 1_555 1_555
H11_2 C21_2 1_555 1_555
O2_2 C14_2 1_555 1_555
C34_2 H22_2 1_555 1_555
C35_2 C34_2 1_555 1_555
C36_2 C35_2 1_555 1_555
H23_2 C36_2 1_555 1_555
C37_2 C36_2 1_555 1_555
C38_2 C37_2 1_555 1_555
H24_2 C38_2 1_555 1_555
C39_2 C34_2 1_555 1_555
C40_2 C35_2 1_555 1_555
C41_2 C40_2 1_555 1_555
C42_2 C41_2 1_555 1_555
H25_2 C42_2 1_555 1_555
C43_2 C42_2 1_555 1_555
H26_2 C43_2 1_555 1_555
C44_2 C43_2 1_555 1_555
C45_2 C44_2 1_555 1_555
H27_2 C45_2 1_555 1_555
C46_2 C41_2 1_555 1_555
H28_2 C46_2 1_555 1_555
C47_2 C44_2 1_555 1_555
C48_2 C37_2 1_555 1_555
C49_2 C48_2 1_555 1_555
C50_2 C49_2 1_555 1_555
H29_2 C50_2 1_555 1_555
C51_2 C50_2 1_555 1_555
H30_2 C51_2 1_555 1_555
C52_2 C51_2 1_555 1_555
C53_2 C52_2 1_555 1_555
H31_2 C53_2 1_555 1_555
C54_2 C49_2 1_555 1_555
H32_2 C54_2 1_555 1_555
C55_2 C52_2 1_555 1_555
C56_2 C39_2 1_555 1_555
C58_2 H34_2 1_555 1_555
C59_2 C58_2 1_555 1_555
H35_2 C59_2 1_555 1_555
C60_2 C59_2 1_555 1_555
C62_2 C56_2 1_555 1_555
C63_2 C60_2 1_555 1_555
O11_2 C40_2 1_555 1_555
O12_2 Gd2_3 1_555 1_555
O21_2 Gd2_3 1_555 1_555
O14_2 C48_2 1_555 1_555
O15_2 C55_2 1_555 1_555
O16_2 C55_2 1_555 1_555
O17_2 C56_2 1_555 1_555
O18_2 C63_2 1_555 1_555
C64_2 H37_2 1_555 1_555
H38_2 C64_2 1_555 1_555
H39_2 C64_2 1_555 1_555
N2_2 C64_2 1_555 1_555
Gd7 O16_2 1_555 1_555
Gd11 O15_2 1_555 1_555
Gd11_3 O18_2 1_555 1_555
O22_2 Gd2_3 1_555 1_555
O23_2 Gd2_3 1_555 1_555
O26_2 Gd2_3 1_555 1_555
O27_2 Gd2_3 1_555 1_555
C20_2 C21_2 1_555 1_555
C38_2 C39_2 1_555 1_555
C45_2 C46_2 1_555 1_555
C47_2 O12_2 1_555 1_555
C47_2 O21_2 1_555 1_555
C53_2 C54_2 1_555 1_555
C58_2 C62_2 1_555 1_555
C57_2 H33_2 1_555 1_555
C61_2 C57_2 1_555 1_555
H36_2 C61_2 1_555 1_555
Gd7_2 O19_2 1_555 1_555
C1_3 H1_3 1_555 1_555
C6_3 C1_3 1_555 1_555
H9_3 C18_3 1_555 1_555
C23_3 C6_3 1_555 1_555
C24_3 H12_3 1_555 1_555
C26_3 C25_3 1_555 1_555
C27_3 C26_3 1_555 1_555
C28_3 C24_3 1_555 1_555
H15_3 C28_3 1_555 1_555
C29_3 C23_3 1_555 1_555
C30_3 C27_3 1_555 1_555
C31_3 H16_3 1_555 1_555
H17_3 C31_3 1_555 1_555
H18_3 C31_3 1_555 1_555
C32_3 O10_3 1_555 1_555
O7_3 C23_3 1_555 1_555
O8_3 C30_3 1_555 1_555
O9_3 C30_3 1_555 1_555
O10_3 Gd1_6 1_555 1_555
N1_3 C31_3 1_555 1_555
C33_3 N1_3 1_555 1_555
H19_3 C33_3 1_555 1_555
H20_3 C33_3 1_555 1_555
H21_3 C33_3 1_555 1_555
Gd7_4 O9_3 1_555 1_555
Gd11_3 O5_2 1_555 1_555
Gd11_5 O8_3 1_555 1_555
O21_3 Gd1_6 1_555 1_555
O24_3 Gd1_6 1_555 1_555
O29_3 Gd1_6 1_555 1_555
C24_3 C29_3 1_555 1_555
C25_3 C29_3 1_555 1_555
C27_3 C28_3 1_555 1_555
C32_3 N1_3 1_555 1_555
C32_3 H44_3 1_555 1_555
Gd1_7 O3_3 1_555 1_555
Gd2_4 O2_3 1_555 1_555
C3_3 C2_3 1_555 1_555
H2_3 C3_3 1_555 1_555
C4_3 C3_3 1_555 1_555
C5_3 C4_3 1_555 1_555
H3_3 C5_3 1_555 1_555
C7_3 C2_3 1_555 1_555
C8_3 C7_3 1_555 1_555
C9_3 C8_3 1_555 1_555
H4_3 C9_3 1_555 1_555
C10_3 C9_3 1_555 1_555
H5_3 C10_3 1_555 1_555
C11_3 C10_3 1_555 1_555
C12_3 C11_3 1_555 1_555
H6_3 C12_3 1_555 1_555
C13_3 C8_3 1_555 1_555
C14_3 C11_3 1_555 1_555
C15_3 C4_3 1_555 1_555
C16_3 C15_3 1_555 1_555
C17_3 C16_3 1_555 1_555
C20_3 C19_3 1_555 1_555
H10_3 C20_3 1_555 1_555
C21_3 C16_3 1_555 1_555
H11_3 C21_3 1_555 1_555
C22_3 C19_3 1_555 1_555
O1_3 C7_3 1_555 1_555
O2_3 C14_3 1_555 1_555
O3_3 Gd2_4 1_555 1_555
O4_3 C15_3 1_555 1_555
O6_2 C22_3 1_555 1_555
C36_3 C35_3 1_555 1_555
H23_3 C36_3 1_555 1_555
C37_3 C36_3 1_555 1_555
C38_3 C37_3 1_555 1_555
H24_3 C38_3 1_555 1_555
C40_3 C35_3 1_555 1_555
C41_3 C40_3 1_555 1_555
C42_3 C41_3 1_555 1_555
H25_3 C42_3 1_555 1_555
C43_3 C42_3 1_555 1_555
H26_3 C43_3 1_555 1_555
C44_3 C43_3 1_555 1_555
C45_3 C44_3 1_555 1_555
H27_3 C45_3 1_555 1_555
C46_3 C41_3 1_555 1_555
C47_3 C44_3 1_555 1_555
C48_3 C37_3 1_555 1_555
C49_3 C48_3 1_555 1_555
C50_3 C49_3 1_555 1_555
C53_3 C52_3 1_555 1_555
H31_3 C53_3 1_555 1_555
C54_3 C49_3 1_555 1_555
H32_3 C54_3 1_555 1_555
C55_3 C52_3 1_555 1_555
O11_3 C40_3 1_555 1_555
O12_3 Gd2_4 1_555 1_555
O21_3 Gd2_4 1_555 1_555
O14_3 C48_3 1_555 1_555
O25_2 C55_3 1_555 1_555
C64_3 H37_3 1_555 1_555
H38_3 C64_3 1_555 1_555
H39_3 C64_3 1_555 1_555
C65_3 O20_3 1_555 1_555
O20_3 Gd1_7 1_555 1_555
N2_3 C64_3 1_555 1_555
C66_3 N2_3 1_555 1_555
H40_3 C66_3 1_555 1_555
H41_3 C66_3 1_555 1_555
H42_3 C66_3 1_555 1_555
Gd7_2 O6_2 1_555 1_555
O22_3 Gd2_4 1_555 1_555
O23_3 Gd2_4 1_555 1_555
O25_3 Gd1_7 1_555 1_555
O26_3 Gd2_4 1_555 1_555
O27_3 Gd2_4 1_555 1_555
O28_3 Gd1_7 1_555 1_555
C12_3 C13_3 1_555 1_555
C14_3 O3_3 1_555 1_555
C20_3 C21_3 1_555 1_555
C45_3 C46_3 1_555 1_555
C47_3 O12_3 1_555 1_555
C47_3 O21_3 1_555 1_555
C53_3 C54_3 1_555 1_555
C65_3 N2_3 1_555 1_555
C65_3 H43_3 1_555 1_555
C34_3 H22_3 1_555 1_555
C39_3 C34_3 1_555 1_555
H30_3 C51_3 1_555 1_555
C56_3 C39_3 1_555 1_555
C57_3 H33_3 1_555 1_555
C59_3 C58_3 1_555 1_555
C60_3 C59_3 1_555 1_555
C61_3 C57_3 1_555 1_555
H36_3 C61_3 1_555 1_555
C62_3 C56_3 1_555 1_555
C63_3 C60_3 1_555 1_555
O17_3 C56_3 1_555 1_555
O18_3 C63_3 1_555 1_555
O19_3 C63_3 1_555 1_555
Gd7_3 O19_3 1_555 1_555
Gd11_6 O18_3 1_555 1_555
C57_3 C62_3 1_555 1_555
C58_3 C62_3 1_555 1_555
C60_3 C61_3 1_555 1_555
Gd4 O3_4 1_555 1_555
C1_4 H1_4 1_555 1_555
C2_4 C1_4 1_555 1_555
C3_4 C2_4 1_555 1_555
H2_4 C3_4 1_555 1_555
C4_4 C3_4 1_555 1_555
C5_4 C4_4 1_555 1_555
H3_4 C5_4 1_555 1_555
C6_4 C1_4 1_555 1_555
C7_4 C2_4 1_555 1_555
C8_4 C7_4 1_555 1_555
C9_4 C8_4 1_555 1_555
C12_4 C11_4 1_555 1_555
H6_4 C12_4 1_555 1_555
C13_4 C8_4 1_555 1_555
H7_4 C13_4 1_555 1_555
C15_4 C4_4 1_555 1_555
C16_4 C15_4 1_555 1_555
C17_4 C16_4 1_555 1_555
H8_4 C17_4 1_555 1_555
C18_4 C17_4 1_555 1_555
H9_4 C18_4 1_555 1_555
C19_4 C18_4 1_555 1_555
C22_4 C19_4 1_555 1_555
C23_4 C6_4 1_555 1_555
C24_4 H12_4 1_555 1_555
C25_4 H13_4 1_555 1_555
C26_4 C25_4 1_555 1_555
H14_4 C26_4 1_555 1_555
C27_4 C26_4 1_555 1_555
C28_4 C24_4 1_555 1_555
H15_4 C28_4 1_555 1_555
C29_4 C23_4 1_555 1_555
C30_4 C27_4 1_555 1_555
C31_4 H16_4 1_555 1_555
H17_4 C31_4 1_555 1_555
H18_4 C31_4 1_555 1_555
C32_4 O10_4 1_555 1_555
O1_4 C7_4 1_555 1_555
O22_3 C22_4 1_555 1_555
O24_3 C22_4 1_555 1_555
O7_4 C23_4 1_555 1_555
O8_4 C30_4 1_555 1_555
O9_4 C30_4 1_555 1_555
O10_4 Gd4 1_555 1_555
N1_4 C31_4 1_555 1_555
C33_4 N1_4 1_555 1_555
H19_4 C33_4 1_555 1_555
H20_4 C33_4 1_555 1_555
H21_4 C33_4 1_555 1_555
C65_4 O20_4 1_555 1_555
O20_4 Gd4 1_555 1_555
H40_4 C66_4 1_555 1_555
H41_4 C66_4 1_555 1_555
H42_4 C66_4 1_555 1_555
Gd5 O9_4 1_555 1_555
Gd9 O8_4 1_555 1_555
O21_4 Gd4 1_555 1_555
O24_4 Gd4 1_555 1_555
O28_4 Gd4 1_555 1_555
O29_4 Gd4 1_555 1_555
C5_4 C6_4 1_555 1_555
C12_4 C13_4 1_555 1_555
C24_4 C29_4 1_555 1_555
C25_4 C29_4 1_555 1_555
C27_4 C28_4 1_555 1_555
C32_4 N1_4 1_555 1_555
C32_4 H44_4 1_555 1_555
C34_4 H22_4 1_555 1_555
C39_4 C34_4 1_555 1_555
C56_4 C39_4 1_555 1_555
C58_4 H34_4 1_555 1_555
C59_4 C58_4 1_555 1_555
H35_4 C59_4 1_555 1_555
C60_4 C59_4 1_555 1_555
C62_4 C56_4 1_555 1_555
C63_4 C60_4 1_555 1_555
O17_4 C56_4 1_555 1_555
O18_4 C63_4 1_555 1_555
Gd9 O18_4 1_555 1_555
C58_4 C62_4 1_555 1_555
Gd8 O2_4 1_555 1_555
H5_4 C10_4 1_555 1_555
H10_4 C20_4 1_555 1_555
H11_4 C21_4 1_555 1_555
O2_4 C14_4 1_555 1_555
C36_4 C35_4 1_555 1_555
H23_4 C36_4 1_555 1_555
C37_4 C36_4 1_555 1_555
C38_4 C37_4 1_555 1_555
C40_4 C35_4 1_555 1_555
C41_4 C40_4 1_555 1_555
C42_4 C41_4 1_555 1_555
H25_4 C42_4 1_555 1_555
C43_4 C42_4 1_555 1_555
H26_4 C43_4 1_555 1_555
C44_4 C43_4 1_555 1_555
C45_4 C44_4 1_555 1_555
H27_4 C45_4 1_555 1_555
C46_4 C41_4 1_555 1_555
H28_4 C46_4 1_555 1_555
C47_4 C44_4 1_555 1_555
C48_4 C37_4 1_555 1_555
C49_4 C48_4 1_555 1_555
C50_4 C49_4 1_555 1_555
H29_4 C50_4 1_555 1_555
C51_4 C50_4 1_555 1_555
H30_4 C51_4 1_555 1_555
C52_4 C51_4 1_555 1_555
C53_4 C52_4 1_555 1_555
H31_4 C53_4 1_555 1_555
C54_4 C49_4 1_555 1_555
H32_4 C54_4 1_555 1_555
C55_4 C52_4 1_555 1_555
O11_4 C40_4 1_555 1_555
O12_4 Gd8 1_555 1_555
O21_4 Gd8 1_555 1_555
O14_4 C48_4 1_555 1_555
O15_3 C55_4 1_555 1_555
O16_3 C55_4 1_555 1_555
C64_4 H37_4 1_555 1_555
H38_4 C64_4 1_555 1_555
H39_4 C64_4 1_555 1_555
N2_4 C64_4 1_555 1_555
Gd7_4 O16_3 1_555 1_555
Gd11_5 O15_3 1_555 1_555
O22_4 Gd8 1_555 1_555
O26_4 Gd8 1_555 1_555
O27_4 Gd8 1_555 1_555
C20_4 C21_4 1_555 1_555
C45_4 C46_4 1_555 1_555
C47_4 O12_4 1_555 1_555
C47_4 O21_4 1_555 1_555
C53_4 C54_4 1_555 1_555
C57_4 H33_4 1_555 1_555
C61_4 C57_4 1_555 1_555
H36_4 C61_4 1_555 1_555
Gd5 O19_4 1_555 1_555
Gd7_3 O3_5 1_555 1_555
Gd11_4 O2_5 1_555 1_555
C1_5 H1_5 1_555 1_555
C2_5 C1_5 1_555 1_555
C3_5 C2_5 1_555 1_555
H2_5 C3_5 1_555 1_555
C4_5 C3_5 1_555 1_555
C5_5 C4_5 1_555 1_555
H3_5 C5_5 1_555 1_555
C6_5 C1_5 1_555 1_555
C7_5 C2_5 1_555 1_555
C8_5 C7_5 1_555 1_555
C9_5 C8_5 1_555 1_555
H4_5 C9_5 1_555 1_555
C10_5 C9_5 1_555 1_555
H5_5 C10_5 1_555 1_555
C11_5 C10_5 1_555 1_555
C12_5 C11_5 1_555 1_555
H6_5 C12_5 1_555 1_555
C13_5 C8_5 1_555 1_555
H7_5 C13_5 1_555 1_555
C14_5 C11_5 1_555 1_555
C15_5 C4_5 1_555 1_555
C16_5 C15_5 1_555 1_555
C17_5 C16_5 1_555 1_555
H8_5 C17_5 1_555 1_555
C18_5 C17_5 1_555 1_555
H9_5 C18_5 1_555 1_555
C19_5 C18_5 1_555 1_555
C20_5 C19_5 1_555 1_555
H10_5 C20_5 1_555 1_555
C21_5 C16_5 1_555 1_555
H11_5 C21_5 1_555 1_555
C22_5 C19_5 1_555 1_555
C23_5 C6_5 1_555 1_555
C24_5 H12_5 1_555 1_555
C25_5 H13_5 1_555 1_555
C26_5 C25_5 1_555 1_555
H14_5 C26_5 1_555 1_555
C27_5 C26_5 1_555 1_555
C28_5 C24_5 1_555 1_555
H15_5 C28_5 1_555 1_555
C29_5 C23_5 1_555 1_555
C30_5 C27_5 1_555 1_555
O1_5 C7_5 1_555 1_555
O2_5 C14_5 1_555 1_555
O3_5 Gd11_4 1_555 1_555
O4_5 C15_5 1_555 1_555
O22_2 C22_5 1_555 1_555
O24_2 C22_5 1_555 1_555
O7_5 C23_5 1_555 1_555
O26_3 C30_5 1_555 1_555
O28_3 C30_5 1_555 1_555
C64_5 H37_5 1_555 1_555
H38_5 C64_5 1_555 1_555
H39_5 C64_5 1_555 1_555
C65_5 O20_5 1_555 1_555
O20_5 Gd7_3 1_555 1_555
N2_5 C64_5 1_555 1_555
C66_5 N2_5 1_555 1_555
H40_5 C66_5 1_555 1_555
H41_5 C66_5 1_555 1_555
H42_5 C66_5 1_555 1_555
O24_5 Gd7_3 1_555 1_555
C5_5 C6_5 1_555 1_555
C12_5 C13_5 1_555 1_555
C14_5 O3_5 1_555 1_555
C20_5 C21_5 1_555 1_555
C24_5 C29_5 1_555 1_555
C25_5 C29_5 1_555 1_555
C27_5 C28_5 1_555 1_555
C65_5 N2_5 1_555 1_555
C65_5 H43_5 1_555 1_555
C31_5 H16_5 1_555 1_555
H17_5 C31_5 1_555 1_555
H18_5 C31_5 1_555 1_555
C32_5 O10_5 1_555 1_555
O10_5 Gd7_4 1_555 1_555
N1_5 C31_5 1_555 1_555
C33_5 N1_5 1_555 1_555
H19_5 C33_5 1_555 1_555
H20_5 C33_5 1_555 1_555
H21_5 C33_5 1_555 1_555
O21_5 Gd7_4 1_555 1_555
C32_5 N1_5 1_555 1_555
C32_5 H44_5 1_555 1_555
O22_5 Gd11_6 1_555 1_555
C34_5 H22_5 1_555 1_555
C35_5 C34_5 1_555 1_555
C36_5 C35_5 1_555 1_555
H23_5 C36_5 1_555 1_555
C37_5 C36_5 1_555 1_555
C38_5 C37_5 1_555 1_555
H24_5 C38_5 1_555 1_555
C39_5 C34_5 1_555 1_555
C40_5 C35_5 1_555 1_555
C41_5 C40_5 1_555 1_555
C42_5 C41_5 1_555 1_555
H25_5 C42_5 1_555 1_555
C43_5 C42_5 1_555 1_555
H26_5 C43_5 1_555 1_555
C44_5 C43_5 1_555 1_555
C45_5 C44_5 1_555 1_555
H27_5 C45_5 1_555 1_555
C46_5 C41_5 1_555 1_555
H28_5 C46_5 1_555 1_555
C47_5 C44_5 1_555 1_555
C48_5 C37_5 1_555 1_555
C49_5 C48_5 1_555 1_555
C50_5 C49_5 1_555 1_555
H29_5 C50_5 1_555 1_555
C51_5 C50_5 1_555 1_555
H30_5 C51_5 1_555 1_555
C52_5 C51_5 1_555 1_555
C53_5 C52_5 1_555 1_555
H31_5 C53_5 1_555 1_555
C54_5 C49_5 1_555 1_555
H32_5 C54_5 1_555 1_555
C55_5 C52_5 1_555 1_555
C56_5 C39_5 1_555 1_555
C57_5 H33_5 1_555 1_555
C58_5 H34_5 1_555 1_555
C59_5 C58_5 1_555 1_555
H35_5 C59_5 1_555 1_555
C60_5 C59_5 1_555 1_555
C61_5 C57_5 1_555 1_555
H36_5 C61_5 1_555 1_555
C62_5 C56_5 1_555 1_555
C63_5 C60_5 1_555 1_555
O11_5 C40_5 1_555 1_555
O12_5 Gd11_7 1_555 1_555
O21_5 Gd11_7 1_555 1_555
O14_5 C48_5 1_555 1_555
O15_4 C55_5 1_555 1_555
O16_4 C55_5 1_555 1_555
O17_5 C56_5 1_555 1_555
O27_3 C63_5 1_555 1_555
O29_3 C63_5 1_555 1_555
Gd7_2 O16_4 1_555 1_555
Gd11_3 O15_4 1_555 1_555
C38_5 C39_5 1_555 1_555
C45_5 C46_5 1_555 1_555
C47_5 O12_5 1_555 1_555
C47_5 O21_5 1_555 1_555
C53_5 C54_5 1_555 1_555
C57_5 C62_5 1_555 1_555
C58_5 C62_5 1_555 1_555
C60_5 C61_5 1_555 1_555
C31_6 H16_6 1_555 1_555
H17_6 C31_6 1_555 1_555
H18_6 C31_6 1_555 1_555
N1_6 C31_6 1_555 1_555
C24_6 H12_6 1_555 1_555
C28_6 C24_6 1_555 1_555
H15_6 C28_6 1_555 1_555
Gd5 O3_6 1_555 1_555
Gd9 O2_6 1_555 1_555
C3_6 C2_6 1_555 1_555
H2_6 C3_6 1_555 1_555
C4_6 C3_6 1_555 1_555
C5_6 C4_6 1_555 1_555
C7_6 C2_6 1_555 1_555
C8_6 C7_6 1_555 1_555
C9_6 C8_6 1_555 1_555
H4_6 C9_6 1_555 1_555
C10_6 C9_6 1_555 1_555
H5_6 C10_6 1_555 1_555
C11_6 C10_6 1_555 1_555
C12_6 C11_6 1_555 1_555
H6_6 C12_6 1_555 1_555
C13_6 C8_6 1_555 1_555
H7_6 C13_6 1_555 1_555
C14_6 C11_6 1_555 1_555
C15_6 C4_6 1_555 1_555
C16_6 C15_6 1_555 1_555
C17_6 C16_6 1_555 1_555
H8_6 C17_6 1_555 1_555
C18_6 C17_6 1_555 1_555
H9_6 C18_6 1_555 1_555
C19_6 C18_6 1_555 1_555
C20_6 C19_6 1_555 1_555
H10_6 C20_6 1_555 1_555
C21_6 C16_6 1_555 1_555
H11_6 C21_6 1_555 1_555
C22_6 C19_6 1_555 1_555
C32_6 O10_6 1_555 1_555
O1_6 C7_6 1_555 1_555
O2_6 C14_6 1_555 1_555
O3_6 Gd9 1_555 1_555
O4_6 C15_6 1_555 1_555
O22_5 C22_6 1_555 1_555
O24_5 C22_6 1_555 1_555
O10_6 Gd5 1_555 1_555
H19_6 C33_6 1_555 1_555
H20_6 C33_6 1_555 1_555
H21_6 C33_6 1_555 1_555
H26_6 C43_6 1_555 1_555
H31_6 C53_6 1_555 1_555
H32_6 C54_6 1_555 1_555
O12_6 Gd9 1_555 1_555
C64_6 H37_6 1_555 1_555
H38_6 C64_6 1_555 1_555
H39_6 C64_6 1_555 1_555
C65_6 O20_6 1_555 1_555
O20_6 Gd5 1_555 1_555
N2_6 C64_6 1_555 1_555
C66_6 N2_6 1_555 1_555
H40_6 C66_6 1_555 1_555
H41_6 C66_6 1_555 1_555
H42_6 C66_6 1_555 1_555
O21_6 Gd5 1_555 1_555
O23_4 Gd9 1_555 1_555
O25_4 Gd5 1_555 1_555
C12_6 C13_6 1_555 1_555
C14_6 O3_6 1_555 1_555
C20_6 C21_6 1_555 1_555
C47_6 O12_6 1_555 1_555
C53_6 C54_6 1_555 1_555
C65_6 N2_6 1_555 1_555
C65_6 H43_6 1_555 1_555
C1_6 H1_6 1_555 1_555
C6_6 C1_6 1_555 1_555
C23_6 C6_6 1_555 1_555
C25_6 H13_6 1_555 1_555
C26_6 C25_6 1_555 1_555
H14_6 C26_6 1_555 1_555
C27_6 C26_6 1_555 1_555
C29_6 C23_6 1_555 1_555
C30_6 C27_6 1_555 1_555
O7_6 C23_6 1_555 1_555
O26_4 C30_6 1_555 1_555
C25_6 C29_6 1_555 1_555
C34_6 H22_6 1_555 1_555
C35_6 C34_6 1_555 1_555
C36_6 C35_6 1_555 1_555
H23_6 C36_6 1_555 1_555
C37_6 C36_6 1_555 1_555
C38_6 C37_6 1_555 1_555
H24_6 C38_6 1_555 1_555
C39_6 C34_6 1_555 1_555
C40_6 C35_6 1_555 1_555
C41_6 C40_6 1_555 1_555
C42_6 C41_6 1_555 1_555
C45_6 C44_6 1_555 1_555
H27_6 C45_6 1_555 1_555
C46_6 C41_6 1_555 1_555
H28_6 C46_6 1_555 1_555
C48_6 C37_6 1_555 1_555
C49_6 C48_6 1_555 1_555
C50_6 C49_6 1_555 1_555
H29_6 C50_6 1_555 1_555
C51_6 C50_6 1_555 1_555
H30_6 C51_6 1_555 1_555
C52_6 C51_6 1_555 1_555
C55_6 C52_6 1_555 1_555
C56_6 C39_6 1_555 1_555
C57_6 H33_6 1_555 1_555
C58_6 H34_6 1_555 1_555
C59_6 C58_6 1_555 1_555
H35_6 C59_6 1_555 1_555
C60_6 C59_6 1_555 1_555
C61_6 C57_6 1_555 1_555
H36_6 C61_6 1_555 1_555
C62_6 C56_6 1_555 1_555
C63_6 C60_6 1_555 1_555
O11_6 C40_6 1_555 1_555
O23_3 C55_6 1_555 1_555
O25_3 C55_6 1_555 1_555
O17_6 C56_6 1_555 1_555
O27_4 C63_6 1_555 1_555
O29_4 C63_6 1_555 1_555
C38_6 C39_6 1_555 1_555
C45_6 C46_6 1_555 1_555
C57_6 C62_6 1_555 1_555
C58_6 C62_6 1_555 1_555
C60_6 C61_6 1_555 1_555
Gd7 O3_7 1_555 1_555
Gd11 O2_7 1_555 1_555
C7_7 C2_7 1_555 1_555
C8_7 C7_7 1_555 1_555
C9_7 C8_7 1_555 1_555
H4_7 C9_7 1_555 1_555
C10_7 C9_7 1_555 1_555
H5_7 C10_7 1_555 1_555
C11_7 C10_7 1_555 1_555
C12_7 C11_7 1_555 1_555
H6_7 C12_7 1_555 1_555
C13_7 C8_7 1_555 1_555
H7_7 C13_7 1_555 1_555
C14_7 C11_7 1_555 1_555
H14_7 C26_7 1_555 1_555
C27_7 C26_7 1_555 1_555
C30_7 C27_7 1_555 1_555
O1_7 C7_7 1_555 1_555
O2_7 C14_7 1_555 1_555
O3_7 Gd11 1_555 1_555
O26 C30_7 1_555 1_555
O28 C30_7 1_555 1_555
O21_7 Gd7 1_555 1_555
O24_6 Gd7 1_555 1_555
C12_7 C13_7 1_555 1_555
C14_7 O3_7 1_555 1_555
H2_7 C3_7 1_555 1_555
C4_7 C3_7 1_555 1_555
C5_7 C4_7 1_555 1_555
H3_7 C5_7 1_555 1_555
C6_7 C1_7 1_555 1_555
C15_7 C4_7 1_555 1_555
C16_7 C15_7 1_555 1_555
C17_7 C16_7 1_555 1_555
H8_7 C17_7 1_555 1_555
C18_7 C17_7 1_555 1_555
H9_7 C18_7 1_555 1_555
C19_7 C18_7 1_555 1_555
C20_7 C19_7 1_555 1_555
H10_7 C20_7 1_555 1_555
C21_7 C16_7 1_555 1_555
H11_7 C21_7 1_555 1_555
C22_7 C19_7 1_555 1_555
C23_7 C6_7 1_555 1_555
C24_7 H12_7 1_555 1_555
C28_7 C24_7 1_555 1_555
H15_7 C28_7 1_555 1_555
C29_7 C23_7 1_555 1_555
C31_7 H16_7 1_555 1_555
H17_7 C31_7 1_555 1_555
H18_7 C31_7 1_555 1_555
C32_7 O10_7 1_555 1_555
O4_7 C15_7 1_555 1_555
O22_4 C22_7 1_555 1_555
O24_4 C22_7 1_555 1_555
O7_7 C23_7 1_555 1_555
N1_7 C31_7 1_555 1_555
C33_7 N1_7 1_555 1_555
H19_7 C33_7 1_555 1_555
H20_7 C33_7 1_555 1_555
H21_7 C33_7 1_555 1_555
C64_7 H37_7 1_555 1_555
H38_7 C64_7 1_555 1_555
H39_7 C64_7 1_555 1_555
C65_7 O20_7 1_555 1_555
N2_7 C64_7 1_555 1_555
C66_7 N2_7 1_555 1_555
H40_7 C66_7 1_555 1_555
H41_7 C66_7 1_555 1_555
H42_7 C66_7 1_555 1_555
C5_7 C6_7 1_555 1_555
C20_7 C21_7 1_555 1_555
C24_7 C29_7 1_555 1_555
C25_7 C29_7 1_555 1_555
C32_7 N1_7 1_555 1_555
C65_7 N2_7 1_555 1_555
C65_7 H43_7 1_555 1_555
C32_7 H44_7 1_555 1_555
C40_7 C35_7 1_555 1_555
C41_7 C40_7 1_555 1_555
C42_7 C41_7 1_555 1_555
H25_7 C42_7 1_555 1_555
C43_7 C42_7 1_555 1_555
H26_7 C43_7 1_555 1_555
C44_7 C43_7 1_555 1_555
C45_7 C44_7 1_555 1_555
H27_7 C45_7 1_555 1_555
C46_7 C41_7 1_555 1_555
H28_7 C46_7 1_555 1_555
C47_7 C44_7 1_555 1_555
H35_7 C59_7 1_555 1_555
C60_7 C59_7 1_555 1_555
C63_7 C60_7 1_555 1_555
O11_7 C40_7 1_555 1_555
O12_7 Gd11_2 1_555 1_555
O21_7 Gd11_2 1_555 1_555
O27 C63_7 1_555 1_555
O29 C63_7 1_555 1_555
O22_6 Gd11_2 1_555 1_555
C45_7 C46_7 1_555 1_555
C47_7 O12_7 1_555 1_555
C47_7 O21_7 1_555 1_555
H23_7 C36_7 1_555 1_555
C37_7 C36_7 1_555 1_555
C38_7 C37_7 1_555 1_555
H24_7 C38_7 1_555 1_555
C39_7 C34_7 1_555 1_555
C48_7 C37_7 1_555 1_555
C49_7 C48_7 1_555 1_555
C50_7 C49_7 1_555 1_555
H29_7 C50_7 1_555 1_555
C51_7 C50_7 1_555 1_555
H30_7 C51_7 1_555 1_555
C52_7 C51_7 1_555 1_555
C53_7 C52_7 1_555 1_555
H31_7 C53_7 1_555 1_555
C54_7 C49_7 1_555 1_555
H32_7 C54_7 1_555 1_555
C55_7 C52_7 1_555 1_555
C56_7 C39_7 1_555 1_555
C57_7 H33_7 1_555 1_555
C61_7 C57_7 1_555 1_555
H36_7 C61_7 1_555 1_555
C62_7 C56_7 1_555 1_555
O14_7 C48_7 1_555 1_555
O23_4 C55_7 1_555 1_555
O25_4 C55_7 1_555 1_555
O17_7 C56_7 1_555 1_555
C38_7 C39_7 1_555 1_555
C53_7 C54_7 1_555 1_555
C57_7 C62_7 1_555 1_555
C58_7 C62_7 1_555 1_555
C24_8 H12_8 1_555 1_555
C28_8 C24_8 1_555 1_555
H15_8 C28_8 1_555 1_555
C31_8 H16_8 1_555 1_555
H17_8 C31_8 1_555 1_555
H18_8 C31_8 1_555 1_555
N1_8 C31_8 1_555 1_555
Gd7_2 O3_8 1_555 1_555
Gd11_3 O2_8 1_555 1_555
C1_8 H1_8 1_555 1_555
C2_8 C1_8 1_555 1_555
C3_8 C2_8 1_555 1_555
H2_8 C3_8 1_555 1_555
C4_8 C3_8 1_555 1_555
C5_8 C4_8 1_555 1_555
H3_8 C5_8 1_555 1_555
C6_8 C1_8 1_555 1_555
C7_8 C2_8 1_555 1_555
C8_8 C7_8 1_555 1_555
C9_8 C8_8 1_555 1_555
H4_8 C9_8 1_555 1_555
C10_8 C9_8 1_555 1_555
H5_8 C10_8 1_555 1_555
C11_8 C10_8 1_555 1_555
C12_8 C11_8 1_555 1_555
H6_8 C12_8 1_555 1_555
C13_8 C8_8 1_555 1_555
H7_8 C13_8 1_555 1_555
C14_8 C11_8 1_555 1_555
C15_8 C4_8 1_555 1_555
C16_8 C15_8 1_555 1_555
C17_8 C16_8 1_555 1_555
H8_8 C17_8 1_555 1_555
C18_8 C17_8 1_555 1_555
H9_8 C18_8 1_555 1_555
C19_8 C18_8 1_555 1_555
C20_8 C19_8 1_555 1_555
H10_8 C20_8 1_555 1_555
C21_8 C16_8 1_555 1_555
H11_8 C21_8 1_555 1_555
C22_8 C19_8 1_555 1_555
C23_8 C6_8 1_555 1_555
C25_8 H13_8 1_555 1_555
C26_8 C25_8 1_555 1_555
H14_8 C26_8 1_555 1_555
C27_8 C26_8 1_555 1_555
C29_8 C23_8 1_555 1_555
C30_8 C27_8 1_555 1_555
C32_8 O10_8 1_555 1_555
O1_8 C7_8 1_555 1_555
O2_8 C14_8 1_555 1_555
O3_8 Gd11_3 1_555 1_555
O4_8 C15_8 1_555 1_555
O22_6 C22_8 1_555 1_555
O24_6 C22_8 1_555 1_555
O7_8 C23_8 1_555 1_555
O26_2 C30_8 1_555 1_555
O10_8 Gd7_2 1_555 1_555
H19_8 C33_8 1_555 1_555
H20_8 C33_8 1_555 1_555
H21_8 C33_8 1_555 1_555
H26_8 C43_8 1_555 1_555
H31_8 C53_8 1_555 1_555
H32_8 C54_8 1_555 1_555
O12_8 Gd11_3 1_555 1_555
C64_8 H37_8 1_555 1_555
H38_8 C64_8 1_555 1_555
H39_8 C64_8 1_555 1_555
C65_8 O20_8 1_555 1_555
O20_8 Gd7_2 1_555 1_555
N2_8 C64_8 1_555 1_555
C66_8 N2_8 1_555 1_555
H40_8 C66_8 1_555 1_555
H41_8 C66_8 1_555 1_555
H42_8 C66_8 1_555 1_555
O21_8 Gd7_2 1_555 1_555
C5_8 C6_8 1_555 1_555
C12_8 C13_8 1_555 1_555
C14_8 O3_8 1_555 1_555
C20_8 C21_8 1_555 1_555
C25_8 C29_8 1_555 1_555
C47_8 O12_8 1_555 1_555
C53_8 C54_8 1_555 1_555
C65_8 N2_8 1_555 1_555
C65_8 H43_8 1_555 1_555
C34_8 H22_8 1_555 1_555
C39_8 C34_8 1_555 1_555
C56_8 C39_8 1_555 1_555
C57_8 H33_8 1_555 1_555
C58_8 H34_8 1_555 1_555
C59_8 C58_8 1_555 1_555
H35_8 C59_8 1_555 1_555
C60_8 C59_8 1_555 1_555
C61_8 C57_8 1_555 1_555
H36_8 C61_8 1_555 1_555
C62_8 C56_8 1_555 1_555
C63_8 C60_8 1_555 1_555
O17_8 C56_8 1_555 1_555
O27_2 C63_8 1_555 1_555
O29_2 C63_8 1_555 1_555
C57_8 C62_8 1_555 1_555
C58_8 C62_8 1_555 1_555
C60_8 C61_8 1_555 1_555
C36_8 C35_8 1_555 1_555
H23_8 C36_8 1_555 1_555
C37_8 C36_8 1_555 1_555
C38_8 C37_8 1_555 1_555
C40_8 C35_8 1_555 1_555
C41_8 C40_8 1_555 1_555
C42_8 C41_8 1_555 1_555
C45_8 C44_8 1_555 1_555
H27_8 C45_8 1_555 1_555
C46_8 C41_8 1_555 1_555
H28_8 C46_8 1_555 1_555
C48_8 C37_8 1_555 1_555
C49_8 C48_8 1_555 1_555
C50_8 C49_8 1_555 1_555
H29_8 C50_8 1_555 1_555
C51_8 C50_8 1_555 1_555
H30_8 C51_8 1_555 1_555
C52_8 C51_8 1_555 1_555
C55_8 C52_8 1_555 1_555
O11_8 C40_8 1_555 1_555
O23 C55_8 1_555 1_555
O25 C55_8 1_555 1_555
C45_8 C46_8 1_555 1_555

#END
