
###############################################################################
#
# This file contains modified crystal structure data generated from the
# MOF subset of the Cambridge Structural Database (CSD) v542 
# hosted by the Cambridge Crystallographic Data Centre (CCDC).
#
# This work is licensed under the Creative Commons
# Attribution-NonCommercial-ShareAlike 4.0 International License.
# To view a copy of this license, visit
# http://creativecommons.org/licenses/by-nc-sa/4.0/
# or send a letter to
# Creative Commons, PO Box 1866, Mountain View, CA 94042, USA.
#
# CIF created using the CSD Python API on 22 February 2021
# The structure has been converted into the P1 space group
# The structure has a 3D framework
# The original CSD entry OHIDER is in the monoclinic crystal system
# The framework has been calculated to contain at least 10.0% void space
# The void calculation uses a probe of radius 1.32A, grid spacing 0.4
# The framework is charged, counterions have been retained in the structure
#
###############################################################################

data_OHIDER
_chemical_formula_moiety         '(C156 H124 Co8 N32 O22 4+)n'
_symmetry_cell_setting           triclinic
_symmetry_space_group_name_H-M   'P 1'
_symmetry_Int_Tables_number      1
_space_group_name_Hall           'P 1'
loop_
_symmetry_equiv_pos_site_id
_symmetry_equiv_pos_as_xyz
1 x,y,z
_cell_length_a                   17.8208(7)
_cell_length_b                   11.7631(4)
_cell_length_c                   20.0811(7)
_cell_angle_alpha                90
_cell_angle_beta                 111.568(8)
_cell_angle_gamma                90
_cell_volume                     3914.81
loop_
_atom_site_label
_atom_site_type_symbol
_atom_site_fract_x
_atom_site_fract_y
_atom_site_fract_z
C1 C 0.3083(3) 0.1821(5) 0.2318(3)
H1 H 0.319671 0.141158 0.274040
N5 N 0.2347(2) 0.2251(4) 0.1933(2)
N6 N 0.3618(3) 0.2045(4) 0.2029(2)
C3 C 0.0279(3) 0.2160(4) 0.2491(3)
C7 C 0.1647(3) 0.2214(4) 0.2119(3)
H9 H 0.000350 0.026642 0.147686
C19 C 0.0307(3) 0.2832(5) 0.1936(3)
C20 C 0.3202(3) 0.2650(5) 0.1425(3)
H12 H 0.342239 0.292774 0.110322
C25 C 0.0955(3) 0.1503(6) 0.2841(3)
H17 H 0.095439 0.103500 0.321400
C27 C 0.2438(3) 0.2787(5) 0.1361(3)
H19 H 0.203933 0.317331 0.099655
C28 C 0.0982(3) 0.2861(5) 0.1746(3)
H20 H 0.098439 0.331700 0.136844
H24 H 0.104337 0.016400 0.125637
C37 C 0.1626(3) 0.1515(6) 0.2660(3)
H29 H 0.206503 0.105251 0.290160
H30 H 0.219644 0.002866 0.099612
Co3 Co 0.48708(4) 0.17359(5) 0.24910(4)
N7 N 0.3802(3) 0.8722(4) 0.0229(3)
N8 N 0.2561(3) 0.8578(4) 0.0186(2)
C14 C 0.0441(3) 0.8855(5) 0.0649(3)
C15 C 0.3305(3) 0.8985(5) 0.0546(3)
H8 H 0.344664 0.940121 0.096837
C16 C 0.1853(3) 0.8687(5) 0.0361(3)
C32 C 0.1082(4) 0.9597(6) 0.0948(4)
C36 C 0.1237(4) 0.7933(6) 0.0066(4)
C38 C 0.1778(4) 0.9512(6) 0.0796(4)
C39 C 0.0546(4) 0.8032(6) 0.0211(4)
H31 H 0.013062 0.751527 0.000199
Co5 Co 0.50349(5) 0.89205(7) 0.05280(4)
O1 O 0.5081(2) 0.3276(3) 0.2076(2)
N1 N 0.7426(2) 0.1663(4) 0.3133(2)
O2 O 0.4867(2) 0.2401(3) 0.34878(19)
O3 O 0.4866(2) 0.0919(3) 0.1539(2)
N3 N 0.6141(3) 0.1573(4) 0.2973(2)
O4 O 0.5305(2) 0.5114(3) 0.2158(2)
O5 O 0.4928(2) 0.0708(3) 0.04800(19)
C2 C 0.4923(3) 0.1293(5) 0.1005(3)
H2 H 0.496787 0.207777 0.097484
C4 C 0.9546(3) 0.2093(4) 0.2680(3)
C5 C 0.5060(3) 0.4224(4) 0.2325(3)
H3 H 0.483685 0.427244 0.267637
C6 C 0.8154(3) 0.1853(4) 0.2995(3)
C9 C 0.8818(3) 0.1186(5) 0.3341(3)
H4 H 0.880300 0.065668 0.368003
O6 O 0.4837(3) 0.2189(4) 0.4563(2)
H6 H 0.883305 0.038638 0.170232
C13 C 0.8880(3) 0.2771(5) 0.2365(3)
H7 H 0.889506 0.332454 0.203917
C18 C 0.6680(3) 0.1962(5) 0.2725(3)
H10 H 0.655199 0.239650 0.231082
H11 H 0.986124 0.327590 0.168299
C22 C 0.6576(4) 0.1002(5) 0.3580(3)
H14 H 0.635591 0.063873 0.387693
C23 C 0.9509(3) 0.1306(5) 0.3185(3)
H15 H 0.995600 0.085291 0.342098
C24 C 0.8190(3) 0.2654(5) 0.2518(3)
H16 H 0.774863 0.312392 0.229525
C26 C 0.7364(4) 0.1032(6) 0.3693(3)
H18 H 0.778252 0.069981 0.406927
C31 C 0.4838(4) 0.1812(5) 0.3987(3)
H23 H 0.481379 0.102771 0.392662
Co4 Co 0.51292(4) 0.67359(5) 0.25090(4)
Co6 Co 0.49651(5) 0.39205(7) 0.44720(4)
O7 O 0.4695(2) 0.0114(3) 0.2842(2)
Co7 Co 0.49651(5) 0.10795(7) 0.94720(4)
N2 N 0.7548(3) 0.9151(4) 0.1233(2)
N4 N 0.6264(3) 0.9093(4) 0.1071(3)
C8 C 0.8269(3) 0.9089(5) 0.1077(3)
C10 C 0.9689(3) 0.8951(4) 0.0802(3)
C11 C 0.6801(3) 0.8905(6) 0.0776(3)
H5 H 0.667803 0.863736 0.031272
C12 C 0.8886(4) 0.9830(6) 0.1393(3)
C17 C 0.9587(3) 0.9756(5) 0.1256(3)
C21 C 0.7470(3) 0.9551(6) 0.1837(3)
H13 H 0.788179 0.982288 0.224215
C29 C 0.8357(3) 0.8260(6) 0.0634(4)
H21 H 0.794454 0.773953 0.042620
C30 C 0.6683(3) 0.9479(5) 0.1737(3)
H22 H 0.646158 0.966626 0.207630
C33 C 0.9058(4) 0.8199(6) 0.0498(4)
H25 H 0.910890 0.763555 0.019187
O9 O 0.5163(3) 0.7189(4) 0.0437(2)
O8 O 0.5072(2) 0.9292(3) 0.95200(19)
O1_2 O 0.4919(2) 0.8276(3) 0.2924(2)
N1_2 N 0.2574(2) 0.6663(4) 0.1867(2)
O2_2 O 0.5133(2) 0.7401(3) 0.15122(19)
O3_2 O 0.5134(2) 0.5919(3) 0.3461(2)
N2_2 N 0.2452(3) 0.4151(4) 0.3767(2)
N3_2 N 0.3859(3) 0.6573(4) 0.2027(2)
O5_2 O 0.5072(2) 0.5708(3) 0.45200(19)
N4_2 N 0.3736(3) 0.4093(4) 0.3929(3)
C2_2 C 0.5077(3) 0.6293(5) 0.3995(3)
H2_2 H 0.503213 0.707777 0.402516
C4_2 C 0.0454(3) 0.7093(4) 0.2320(3)
C5_2 C 0.4940(3) 0.9224(4) 0.2675(3)
H3_2 H 0.516315 0.927244 0.232363
C6_2 C 0.1846(3) 0.6853(4) 0.2005(3)
C8_2 C 0.1731(3) 0.4089(5) 0.3923(3)
C9_2 C 0.1182(3) 0.6186(5) 0.1659(3)
H4_2 H 0.119700 0.565668 0.131997
C10_2 C 0.0311(3) 0.3951(4) 0.4198(3)
C11_2 C 0.3199(3) 0.3905(6) 0.4224(3)
H5_2 H 0.332197 0.363736 0.468728
C12_2 C 0.1114(4) 0.4830(6) 0.3607(3)
H6_2 H 0.116695 0.538638 0.329768
C13_2 C 0.1120(3) 0.7771(5) 0.2635(3)
H7_2 H 0.110494 0.832454 0.296083
C17_2 C 0.0413(3) 0.4756(5) 0.3744(3)
C18_2 C 0.3320(3) 0.6962(5) 0.2275(3)
H10_2 H 0.344801 0.739650 0.268918
H11_2 H 0.013876 0.827590 0.331701
C21_2 C 0.2530(3) 0.4551(6) 0.3163(3)
H13_2 H 0.211821 0.482288 0.275785
C22_2 C 0.3424(4) 0.6002(5) 0.1420(3)
H14_2 H 0.364409 0.563873 0.112307
C23_2 C 0.0491(3) 0.6306(5) 0.1815(3)
H15_2 H 0.004400 0.585291 0.157902
C24_2 C 0.1810(3) 0.7654(5) 0.2482(3)
H16_2 H 0.225137 0.812392 0.270475
C26_2 C 0.2636(4) 0.6032(6) 0.1307(3)
H18_2 H 0.221748 0.569981 0.093073
C29_2 C 0.1643(3) 0.3260(6) 0.4366(4)
H21_2 H 0.205546 0.273953 0.457380
C30_2 C 0.3317(3) 0.4479(5) 0.3263(3)
H22_2 H 0.353842 0.466626 0.292370
C31_2 C 0.5162(4) 0.6812(5) 0.1013(3)
H23_2 H 0.518621 0.602771 0.107338
C33_2 C 0.0942(4) 0.3199(6) 0.4502(4)
H25_2 H 0.089110 0.263555 0.480813
Co7_2 Co 0.50349(5) 0.60795(7) 0.55280(4)
O8_2 O 0.4928(2) 0.4292(3) 0.54800(19)
N9 N 0.6382(3) 0.7045(4) 0.2971(2)
N10 N 0.6198(3) 0.3722(4) 0.4771(3)
C1_2 C 0.6917(3) 0.6821(5) 0.2682(3)
H1_2 H 0.680329 0.641158 0.225960
N5_2 N 0.7653(2) 0.7251(4) 0.3067(2)
C3_2 C 0.9721(3) 0.7160(4) 0.2509(3)
N8_2 N 0.7439(3) 0.3578(4) 0.4814(2)
C7_2 C 0.8353(3) 0.7214(4) 0.2881(3)
C14_2 C 0.9559(3) 0.3855(5) 0.4351(3)
C15_2 C 0.6695(3) 0.3985(5) 0.4454(3)
H8_2 H 0.655336 0.440121 0.403163
C16_2 C 0.8147(3) 0.3687(5) 0.4639(3)
H9_2 H 0.999650 0.526642 0.352314
C19_2 C 0.9693(3) 0.7832(5) 0.3064(3)
C20_2 C 0.6798(3) 0.7650(5) 0.3575(3)
H12_2 H 0.657761 0.792774 0.389678
C25_2 C 0.9045(3) 0.6503(6) 0.2159(3)
H17_2 H 0.904561 0.603500 0.178600
C27_2 C 0.7562(3) 0.7787(5) 0.3639(3)
H19_2 H 0.796067 0.817331 0.400345
C28_2 C 0.9018(3) 0.7861(5) 0.3254(3)
H20_2 H 0.901561 0.831700 0.363156
C32_2 C 0.8918(4) 0.4597(6) 0.4052(4)
H24_2 H 0.895663 0.516400 0.374363
C34 C 0.7386(4) 0.3015(7) 0.5391(4)
H26 H 0.780387 0.263560 0.574252
C35 C 0.6627(4) 0.3109(7) 0.5358(4)
H27 H 0.642501 0.280243 0.568516
C36_2 C 0.8763(4) 0.2933(6) 0.4934(4)
H28 H 0.871406 0.235612 0.523175
C37_2 C 0.8374(3) 0.6515(6) 0.2340(3)
H29_2 H 0.793497 0.605251 0.209840
C38_2 C 0.8222(4) 0.4512(6) 0.4204(4)
H30_2 H 0.780356 0.502866 0.400388
C39_2 C 0.9454(4) 0.3032(6) 0.4789(4)
H31_2 H 0.986938 0.251527 0.499801
N2_3 N 0.2452(3) 0.0849(4) 0.8767(2)
N4_3 N 0.3736(3) 0.0907(4) 0.8929(3)
C8_3 C 0.1731(3) 0.0911(5) 0.8923(3)
C10_3 C 0.0311(3) 0.1049(4) 0.9198(3)
C11_3 C 0.3199(3) 0.1095(6) 0.9224(3)
H5_3 H 0.332197 0.136264 0.968728
C12_3 C 0.1114(4) 0.0170(6) 0.8607(3)
C17_3 C 0.0413(3) 0.0244(5) 0.8744(3)
C21_3 C 0.2530(3) 0.0449(6) 0.8163(3)
H13_3 H 0.211821 0.017712 0.775785
C29_3 C 0.1643(3) 0.1740(6) 0.9366(4)
H21_3 H 0.205546 0.226047 0.957380
C30_3 C 0.3317(3) 0.0521(5) 0.8263(3)
H22_3 H 0.353842 0.033374 0.792370
C33_3 C 0.0942(4) 0.1801(6) 0.9502(4)
H25_3 H 0.089110 0.236445 0.980813
N10_2 N 0.6198(3) 0.1278(4) 0.9771(3)
O9_2 O 0.4837(3) 0.2811(4) 0.9563(2)
Co1 Co 0.51292(4) 0.82641(5) 0.75090(4)
O1_3 O 0.4919(2) 0.6724(3) 0.7924(2)
N1_3 N 0.2574(2) 0.8337(4) 0.6867(2)
O2_3 O 0.5133(2) 0.7599(3) 0.65122(19)
O3_3 O 0.5134(2) 0.9081(3) 0.8461(2)
N3_3 N 0.3859(3) 0.8427(4) 0.7027(2)
O4_2 O 0.4695(2) 0.4886(3) 0.7842(2)
C2_3 C 0.5077(3) 0.8707(5) 0.8995(3)
H2_3 H 0.503213 0.792223 0.902516
C4_3 C 0.0454(3) 0.7907(4) 0.7320(3)
C5_3 C 0.4940(3) 0.5776(4) 0.7675(3)
H3_3 H 0.516315 0.572756 0.732363
C6_3 C 0.1846(3) 0.8147(4) 0.7005(3)
C9_3 C 0.1182(3) 0.8814(5) 0.6659(3)
H4_3 H 0.119700 0.934332 0.631997
O6_2 O 0.5163(3) 0.7811(4) 0.5437(2)
H6_3 H 0.116695 0.961362 0.829768
C13_3 C 0.1120(3) 0.7229(5) 0.7635(3)
H7_3 H 0.110494 0.667546 0.796083
C18_3 C 0.3320(3) 0.8038(5) 0.7275(3)
H10_3 H 0.344801 0.760350 0.768918
H11_3 H 0.013876 0.672410 0.831701
C22_3 C 0.3424(4) 0.8998(5) 0.6420(3)
H14_3 H 0.364409 0.936127 0.612307
C23_3 C 0.0491(3) 0.8694(5) 0.6815(3)
H15_3 H 0.004400 0.914709 0.657902
C24_3 C 0.1810(3) 0.7346(5) 0.7482(3)
H16_3 H 0.225137 0.687608 0.770475
C26_3 C 0.2636(4) 0.8968(6) 0.6307(3)
H18_3 H 0.221748 0.930019 0.593073
C31_3 C 0.5162(4) 0.8188(5) 0.6013(3)
H23_3 H 0.518621 0.897229 0.607338
Co4_2 Co 0.48708(4) 0.32641(5) 0.74910(4)
O7_2 O 0.5305(2) 0.9886(3) 0.7158(2)
N9_2 N 0.6382(3) 0.7955(4) 0.7971(2)
N8_3 N 0.7439(3) 0.1422(4) 0.9814(2)
C14_3 C 0.9559(3) 0.1145(5) 0.9351(3)
C15_3 C 0.6695(3) 0.1015(5) 0.9454(3)
H8_3 H 0.655336 0.059879 0.903163
C16_3 C 0.8147(3) 0.1313(5) 0.9639(3)
C32_3 C 0.8918(4) 0.0403(6) 0.9052(4)
C36_3 C 0.8763(4) 0.2067(6) 0.9934(4)
C38_3 C 0.8222(4) 0.0488(6) 0.9204(4)
C39_3 C 0.9454(4) 0.1968(6) 0.9789(4)
H31_3 H 0.986938 0.248473 0.999801
C1_3 C 0.6917(3) 0.8179(5) 0.7682(3)
H1_3 H 0.680329 0.858842 0.725960
N5_3 N 0.7653(2) 0.7749(4) 0.8067(2)
C3_3 C 0.9721(3) 0.7840(4) 0.7509(3)
C7_3 C 0.8353(3) 0.7786(4) 0.7881(3)
H9_3 H 0.999650 0.973358 0.852314
C19_3 C 0.9693(3) 0.7168(5) 0.8064(3)
C20_3 C 0.6798(3) 0.7350(5) 0.8575(3)
H12_3 H 0.657761 0.707226 0.889678
C25_3 C 0.9045(3) 0.8497(6) 0.7159(3)
H17_3 H 0.904561 0.896500 0.678600
C27_3 C 0.7562(3) 0.7213(5) 0.8639(3)
H19_3 H 0.796067 0.682669 0.900345
C28_3 C 0.9018(3) 0.7139(5) 0.8254(3)
H20_3 H 0.901561 0.668300 0.863156
H24_3 H 0.895663 0.983600 0.874363
C37_3 C 0.8374(3) 0.8485(6) 0.7340(3)
H29_3 H 0.793497 0.894749 0.709840
H30_3 H 0.780356 0.997134 0.900388
C1_4 C 0.3083(3) 0.3179(5) 0.7318(3)
H1_4 H 0.319671 0.358842 0.774040
N5_4 N 0.2347(2) 0.2749(4) 0.6933(2)
N6_2 N 0.3618(3) 0.2955(4) 0.7029(2)
C3_4 C 0.0279(3) 0.2840(4) 0.7491(3)
N7_2 N 0.3802(3) 0.6278(4) 0.5229(3)
N8_4 N 0.2561(3) 0.6422(4) 0.5186(2)
C7_4 C 0.1647(3) 0.2786(4) 0.7119(3)
C14_4 C 0.0441(3) 0.6145(5) 0.5649(3)
C15_4 C 0.3305(3) 0.6015(5) 0.5546(3)
H8_4 H 0.344664 0.559879 0.596837
C16_4 C 0.1853(3) 0.6313(5) 0.5361(3)
H9_4 H 0.000350 0.473358 0.647686
C19_4 C 0.0307(3) 0.2168(5) 0.6936(3)
C20_4 C 0.3202(3) 0.2350(5) 0.6425(3)
H12_4 H 0.342239 0.207226 0.610322
C25_4 C 0.0955(3) 0.3497(6) 0.7841(3)
H17_4 H 0.095439 0.396500 0.821400
C27_4 C 0.2438(3) 0.2213(5) 0.6361(3)
H19_4 H 0.203933 0.182669 0.599655
C28_4 C 0.0982(3) 0.2139(5) 0.6746(3)
H20_4 H 0.098439 0.168300 0.636844
C32_4 C 0.1082(4) 0.5403(6) 0.5948(4)
H24_4 H 0.104337 0.483600 0.625637
C34_2 C 0.2614(4) 0.6985(7) 0.4609(4)
H26_2 H 0.219613 0.736440 0.425748
C35_2 C 0.3373(4) 0.6891(7) 0.4642(4)
H27_2 H 0.357499 0.719757 0.431484
C36_4 C 0.1237(4) 0.7067(6) 0.5066(4)
H28_2 H 0.128594 0.764388 0.476825
C37_4 C 0.1626(3) 0.3485(6) 0.7660(3)
H29_4 H 0.206503 0.394749 0.790160
C38_4 C 0.1778(4) 0.5488(6) 0.5796(4)
H30_4 H 0.219644 0.497134 0.599612
C39_4 C 0.0546(4) 0.6968(6) 0.5211(4)
H31_4 H 0.013062 0.748473 0.500199
O1_4 O 0.5081(2) 0.1724(3) 0.7076(2)
N1_4 N 0.7426(2) 0.3337(4) 0.8133(2)
O2_4 O 0.4867(2) 0.2599(3) 0.84878(19)
O3_4 O 0.4866(2) 0.4081(3) 0.6539(2)
N2_4 N 0.7548(3) 0.5849(4) 0.6233(2)
N3_4 N 0.6141(3) 0.3427(4) 0.7973(2)
N4_4 N 0.6264(3) 0.5907(4) 0.6071(3)
C2_4 C 0.4923(3) 0.3707(5) 0.6005(3)
H2_4 H 0.496787 0.292223 0.597484
C4_4 C 0.9546(3) 0.2907(4) 0.7680(3)
C5_4 C 0.5060(3) 0.0776(4) 0.7325(3)
H3_4 H 0.483685 0.072756 0.767637
C6_4 C 0.8154(3) 0.3147(4) 0.7995(3)
C8_4 C 0.8269(3) 0.5911(5) 0.6077(3)
C9_4 C 0.8818(3) 0.3814(5) 0.8341(3)
H4_4 H 0.880300 0.434332 0.868003
C10_4 C 0.9689(3) 0.6049(4) 0.5802(3)
C11_4 C 0.6801(3) 0.6095(6) 0.5776(3)
H5_4 H 0.667803 0.636264 0.531272
C12_4 C 0.8886(4) 0.5170(6) 0.6393(3)
H6_4 H 0.883305 0.461362 0.670232
C13_4 C 0.8880(3) 0.2229(5) 0.7365(3)
H7_4 H 0.889506 0.167546 0.703917
C17_4 C 0.9587(3) 0.5244(5) 0.6256(3)
C18_4 C 0.6680(3) 0.3038(5) 0.7725(3)
H10_4 H 0.655199 0.260350 0.731082
H11_4 H 0.986124 0.172410 0.668299
C21_4 C 0.7470(3) 0.5449(6) 0.6837(3)
H13_4 H 0.788179 0.517712 0.724215
C22_4 C 0.6576(4) 0.3998(5) 0.8580(3)
H14_4 H 0.635591 0.436127 0.887693
C23_4 C 0.9509(3) 0.3694(5) 0.8185(3)
H15_4 H 0.995600 0.414709 0.842098
C24_4 C 0.8190(3) 0.2346(5) 0.7518(3)
H16_4 H 0.774863 0.187608 0.729525
C26_4 C 0.7364(4) 0.3968(6) 0.8693(3)
H18_4 H 0.778252 0.430019 0.906927
C29_4 C 0.8357(3) 0.6740(6) 0.5634(4)
H21_4 H 0.794454 0.726047 0.542620
C30_4 C 0.6683(3) 0.5521(5) 0.6737(3)
H22_4 H 0.646158 0.533374 0.707630
C31_4 C 0.4838(4) 0.3188(5) 0.8987(3)
H23_4 H 0.481379 0.397229 0.892662
C33_4 C 0.9058(4) 0.6801(6) 0.5498(4)
H25_4 H 0.910890 0.736445 0.519187
C34_3 C 0.2614(4) 0.8015(7) 0.9609(4)
H26_3 H 0.219613 0.763560 0.925748
C35_3 C 0.3373(4) 0.8109(7) 0.9642(4)
H27_3 H 0.357499 0.780243 0.931484
H28_3 H 0.128594 0.735612 0.976825
C34_4 C 0.7386(4) 0.1985(7) 0.0391(4)
H26_4 H 0.780387 0.236440 0.074252
C35_4 C 0.6627(4) 0.1891(7) 0.0358(4)
H27_4 H 0.642501 0.219757 0.068516
H28_4 H 0.871406 0.264388 0.023175
loop_
_geom_bond_atom_site_label_1
_geom_bond_atom_site_label_2
_geom_bond_site_symmetry_1
_geom_bond_site_symmetry_2
C1 H1 1_555 1_555
N5 C1 1_555 1_555
N6 C1 1_555 1_555
C7 N5 1_555 1_555
C19 C3 1_555 1_555
C20 N6 1_555 1_555
H12 C20 1_555 1_555
C25 C3 1_555 1_555
H17 C25 1_555 1_555
C27 N5 1_555 1_555
H19 C27 1_555 1_555
C28 C7 1_555 1_555
H20 C28 1_555 1_555
C37 C7 1_555 1_555
H29 C37 1_555 1_555
Co3 N6 1_555 1_555
C19 C28 1_555 1_555
C20 C27 1_555 1_555
C25 C37 1_555 1_555
N7 C15 1_555 1_555
N8 C15 1_555 1_555
C14 C32 1_555 1_555
C15 H8 1_555 1_555
C16 N8 1_555 1_555
C36 C16 1_555 1_555
C38 C16 1_555 1_555
C39 C14 1_555 1_555
H31 C39 1_555 1_555
Co5 N7 1_555 1_555
C32 C38 1_555 1_555
C36 C39 1_555 1_555
Co3 O1 1_555 1_555
O1 C5 1_555 1_555
N1 C6 1_555 1_555
O2 Co3 1_555 1_555
O3 Co3 1_555 1_555
N3 Co3 1_555 1_555
O4 C5 1_555 1_555
O5 C2 1_555 1_555
C2 O3 1_555 1_555
H2 C2 1_555 1_555
C4 C13 1_555 1_555
C5 H3 1_555 1_555
C6 C9 1_555 1_555
C9 H4 1_555 1_555
O6 C31 1_555 1_555
C13 H7 1_555 1_555
C18 N1 1_555 1_555
H10 C18 1_555 1_555
C22 N3 1_555 1_555
H14 C22 1_555 1_555
C23 C4 1_555 1_555
H15 C23 1_555 1_555
C24 C6 1_555 1_555
H16 C24 1_555 1_555
C26 N1 1_555 1_555
H18 C26 1_555 1_555
C31 O2 1_555 1_555
H23 C31 1_555 1_555
Co4 O4 1_555 1_555
Co6 O6 1_555 1_555
O7 Co3 1_555 1_555
N3 C18 1_555 1_555
C9 C23 1_555 1_555
C13 C24 1_555 1_555
C22 C26 1_555 1_555
N2 C8 1_555 1_555
N4 Co5 1_555 1_555
C8 C12 1_555 1_555
C11 N2 1_555 1_555
H5 C11 1_555 1_555
C17 C10 1_555 1_555
C21 N2 1_555 1_555
H13 C21 1_555 1_555
C29 C8 1_555 1_555
H21 C29 1_555 1_555
C30 N4 1_555 1_555
H22 C30 1_555 1_555
C33 C10 1_555 1_555
H25 C33 1_555 1_555
O9 Co5 1_555 1_555
N4 C11 1_555 1_555
C12 C17 1_555 1_555
C21 C30 1_555 1_555
C29 C33 1_555 1_555
Co4 O1_2 1_555 1_555
Co6 O5_2 1_555 1_555
O1_2 C5_2 1_555 1_555
N1_2 C6_2 1_555 1_555
O2_2 Co4 1_555 1_555
O3_2 Co4 1_555 1_555
N2_2 C8_2 1_555 1_555
N3_2 Co4 1_555 1_555
O5_2 C2_2 1_555 1_555
N4_2 Co6 1_555 1_555
C2_2 O3_2 1_555 1_555
H2_2 C2_2 1_555 1_555
C4_2 C13_2 1_555 1_555
C5_2 H3_2 1_555 1_555
C6_2 C9_2 1_555 1_555
C8_2 C12_2 1_555 1_555
C9_2 H4_2 1_555 1_555
O9 C31_2 1_555 1_555
C11_2 N2_2 1_555 1_555
H5_2 C11_2 1_555 1_555
C12_2 H6_2 1_555 1_555
C13_2 H7_2 1_555 1_555
C17_2 C10_2 1_555 1_555
C18_2 N1_2 1_555 1_555
H10_2 C18_2 1_555 1_555
C21_2 N2_2 1_555 1_555
H13_2 C21_2 1_555 1_555
C22_2 N3_2 1_555 1_555
H14_2 C22_2 1_555 1_555
C23_2 C4_2 1_555 1_555
H15_2 C23_2 1_555 1_555
C24_2 C6_2 1_555 1_555
H16_2 C24_2 1_555 1_555
C26_2 N1_2 1_555 1_555
H18_2 C26_2 1_555 1_555
C29_2 C8_2 1_555 1_555
H21_2 C29_2 1_555 1_555
C30_2 N4_2 1_555 1_555
H22_2 C30_2 1_555 1_555
C31_2 O2_2 1_555 1_555
H23_2 C31_2 1_555 1_555
C33_2 C10_2 1_555 1_555
H25_2 C33_2 1_555 1_555
Co7_2 O5_2 1_555 1_555
O8_2 Co6 1_555 1_555
N9 Co4 1_555 1_555
N10 Co6 1_555 1_555
N3_2 C18_2 1_555 1_555
N4_2 C11_2 1_555 1_555
C9_2 C23_2 1_555 1_555
C12_2 C17_2 1_555 1_555
C13_2 C24_2 1_555 1_555
C21_2 C30_2 1_555 1_555
C22_2 C26_2 1_555 1_555
C29_2 C33_2 1_555 1_555
Co7_2 O8_2 1_555 1_555
C1_2 H1_2 1_555 1_555
N5_2 C1_2 1_555 1_555
N9 C1_2 1_555 1_555
N10 C15_2 1_555 1_555
N8_2 C15_2 1_555 1_555
C7_2 N5_2 1_555 1_555
C14_2 C32_2 1_555 1_555
C15_2 H8_2 1_555 1_555
C16_2 N8_2 1_555 1_555
C19_2 C3_2 1_555 1_555
C20_2 N9 1_555 1_555
H12_2 C20_2 1_555 1_555
C25_2 C3_2 1_555 1_555
H17_2 C25_2 1_555 1_555
C27_2 N5_2 1_555 1_555
H19_2 C27_2 1_555 1_555
C28_2 C7_2 1_555 1_555
H20_2 C28_2 1_555 1_555
C32_2 H24_2 1_555 1_555
C34 N8_2 1_555 1_555
H26 C34 1_555 1_555
C35 N10 1_555 1_555
H27 C35 1_555 1_555
C36_2 C16_2 1_555 1_555
H28 C36_2 1_555 1_555
C37_2 C7_2 1_555 1_555
H29_2 C37_2 1_555 1_555
C38_2 C16_2 1_555 1_555
H30_2 C38_2 1_555 1_555
C39_2 C14_2 1_555 1_555
H31_2 C39_2 1_555 1_555
C19_2 C28_2 1_555 1_555
C20_2 C27_2 1_555 1_555
C25_2 C37_2 1_555 1_555
C32_2 C38_2 1_555 1_555
C34 C35 1_555 1_555
C36_2 C39_2 1_555 1_555
N2_3 C8_3 1_555 1_555
N4_3 Co7 1_555 1_555
C8_3 C12_3 1_555 1_555
C11_3 N2_3 1_555 1_555
H5_3 C11_3 1_555 1_555
C17_3 C10_3 1_555 1_555
C21_3 N2_3 1_555 1_555
H13_3 C21_3 1_555 1_555
C29_3 C8_3 1_555 1_555
H21_3 C29_3 1_555 1_555
C30_3 N4_3 1_555 1_555
H22_3 C30_3 1_555 1_555
C33_3 C10_3 1_555 1_555
H25_3 C33_3 1_555 1_555
N10_2 Co7 1_555 1_555
O9_2 Co7 1_555 1_555
N4_3 C11_3 1_555 1_555
C12_3 C17_3 1_555 1_555
C21_3 C30_3 1_555 1_555
C29_3 C33_3 1_555 1_555
Co1 O1_3 1_555 1_555
O1_3 C5_3 1_555 1_555
N1_3 C6_3 1_555 1_555
O2_3 Co1 1_555 1_555
O3_3 Co1 1_555 1_555
N3_3 Co1 1_555 1_555
O4_2 C5_3 1_555 1_555
O8 C2_3 1_555 1_555
C2_3 O3_3 1_555 1_555
H2_3 C2_3 1_555 1_555
C4_3 C13_3 1_555 1_555
C5_3 H3_3 1_555 1_555
C6_3 C9_3 1_555 1_555
C9_3 H4_3 1_555 1_555
O6_2 C31_3 1_555 1_555
C13_3 H7_3 1_555 1_555
C18_3 N1_3 1_555 1_555
H10_3 C18_3 1_555 1_555
C22_3 N3_3 1_555 1_555
H14_3 C22_3 1_555 1_555
C23_3 C4_3 1_555 1_555
H15_3 C23_3 1_555 1_555
C24_3 C6_3 1_555 1_555
H16_3 C24_3 1_555 1_555
C26_3 N1_3 1_555 1_555
H18_3 C26_3 1_555 1_555
C31_3 O2_3 1_555 1_555
H23_3 C31_3 1_555 1_555
Co4_2 O4_2 1_555 1_555
Co7_2 O6_2 1_555 1_555
O7_2 Co1 1_555 1_555
N9_2 Co1 1_555 1_555
N3_3 C18_3 1_555 1_555
C9_3 C23_3 1_555 1_555
C13_3 C24_3 1_555 1_555
C22_3 C26_3 1_555 1_555
N10_2 C15_3 1_555 1_555
N8_3 C15_3 1_555 1_555
C14_3 C32_3 1_555 1_555
C15_3 H8_3 1_555 1_555
C16_3 N8_3 1_555 1_555
C36_3 C16_3 1_555 1_555
C38_3 C16_3 1_555 1_555
C39_3 C14_3 1_555 1_555
H31_3 C39_3 1_555 1_555
C32_3 C38_3 1_555 1_555
C36_3 C39_3 1_555 1_555
C1_3 H1_3 1_555 1_555
N5_3 C1_3 1_555 1_555
N9_2 C1_3 1_555 1_555
C7_3 N5_3 1_555 1_555
C19_3 C3_3 1_555 1_555
C20_3 N9_2 1_555 1_555
H12_3 C20_3 1_555 1_555
C25_3 C3_3 1_555 1_555
H17_3 C25_3 1_555 1_555
C27_3 N5_3 1_555 1_555
H19_3 C27_3 1_555 1_555
C28_3 C7_3 1_555 1_555
H20_3 C28_3 1_555 1_555
C37_3 C7_3 1_555 1_555
H29_3 C37_3 1_555 1_555
C19_3 C28_3 1_555 1_555
C20_3 C27_3 1_555 1_555
C25_3 C37_3 1_555 1_555
C1_4 H1_4 1_555 1_555
N5_4 C1_4 1_555 1_555
N6_2 C1_4 1_555 1_555
N7_2 C15_4 1_555 1_555
N8_4 C15_4 1_555 1_555
C7_4 N5_4 1_555 1_555
C14_4 C32_4 1_555 1_555
C15_4 H8_4 1_555 1_555
C16_4 N8_4 1_555 1_555
C19_4 C3_4 1_555 1_555
C20_4 N6_2 1_555 1_555
H12_4 C20_4 1_555 1_555
C25_4 C3_4 1_555 1_555
H17_4 C25_4 1_555 1_555
C27_4 N5_4 1_555 1_555
H19_4 C27_4 1_555 1_555
C28_4 C7_4 1_555 1_555
H20_4 C28_4 1_555 1_555
C32_4 H24_4 1_555 1_555
C34_2 N8_4 1_555 1_555
H26_2 C34_2 1_555 1_555
C35_2 N7_2 1_555 1_555
H27_2 C35_2 1_555 1_555
C36_4 C16_4 1_555 1_555
H28_2 C36_4 1_555 1_555
C37_4 C7_4 1_555 1_555
H29_4 C37_4 1_555 1_555
C38_4 C16_4 1_555 1_555
H30_4 C38_4 1_555 1_555
C39_4 C14_4 1_555 1_555
H31_4 C39_4 1_555 1_555
Co4_2 N6_2 1_555 1_555
Co7_2 N7_2 1_555 1_555
C19_4 C28_4 1_555 1_555
C20_4 C27_4 1_555 1_555
C25_4 C37_4 1_555 1_555
C32_4 C38_4 1_555 1_555
C34_2 C35_2 1_555 1_555
C36_4 C39_4 1_555 1_555
Co4_2 O1_4 1_555 1_555
O1_4 C5_4 1_555 1_555
N1_4 C6_4 1_555 1_555
O2_4 Co4_2 1_555 1_555
O3_4 Co4_2 1_555 1_555
N2_4 C8_4 1_555 1_555
N3_4 Co4_2 1_555 1_555
O8_2 C2_4 1_555 1_555
N4_4 Co7_2 1_555 1_555
C2_4 O3_4 1_555 1_555
H2_4 C2_4 1_555 1_555
C4_4 C13_4 1_555 1_555
C5_4 H3_4 1_555 1_555
C6_4 C9_4 1_555 1_555
C8_4 C12_4 1_555 1_555
C9_4 H4_4 1_555 1_555
O9_2 C31_4 1_555 1_555
C11_4 N2_4 1_555 1_555
H5_4 C11_4 1_555 1_555
C12_4 H6_4 1_555 1_555
C13_4 H7_4 1_555 1_555
C17_4 C10_4 1_555 1_555
C18_4 N1_4 1_555 1_555
H10_4 C18_4 1_555 1_555
C21_4 N2_4 1_555 1_555
H13_4 C21_4 1_555 1_555
C22_4 N3_4 1_555 1_555
H14_4 C22_4 1_555 1_555
C23_4 C4_4 1_555 1_555
H15_4 C23_4 1_555 1_555
C24_4 C6_4 1_555 1_555
H16_4 C24_4 1_555 1_555
C26_4 N1_4 1_555 1_555
H18_4 C26_4 1_555 1_555
C29_4 C8_4 1_555 1_555
H21_4 C29_4 1_555 1_555
C30_4 N4_4 1_555 1_555
H22_4 C30_4 1_555 1_555
C31_4 O2_4 1_555 1_555
H23_4 C31_4 1_555 1_555
C33_4 C10_4 1_555 1_555
H25_4 C33_4 1_555 1_555
N3_4 C18_4 1_555 1_555
N4_4 C11_4 1_555 1_555
C9_4 C23_4 1_555 1_555
C12_4 C17_4 1_555 1_555
C13_4 C24_4 1_555 1_555
C21_4 C30_4 1_555 1_555
C22_4 C26_4 1_555 1_555
C29_4 C33_4 1_555 1_555
H26_3 C34_3 1_555 1_555
H27_3 C35_3 1_555 1_555
C34_3 C35_3 1_555 1_555
H26_4 C34_4 1_555 1_555
H27_4 C35_4 1_555 1_555
C34_4 C35_4 1_555 1_555

#END
