
###############################################################################
#
# This file contains modified crystal structure data generated from the
# MOF subset of the Cambridge Structural Database (CSD) v542 
# hosted by the Cambridge Crystallographic Data Centre (CCDC).
#
# This work is licensed under the Creative Commons
# Attribution-NonCommercial-ShareAlike 4.0 International License.
# To view a copy of this license, visit
# http://creativecommons.org/licenses/by-nc-sa/4.0/
# or send a letter to
# Creative Commons, PO Box 1866, Mountain View, CA 94042, USA.
#
# CIF created using the CSD Python API on 22 February 2021
# The structure has been converted into the P1 space group
# The structure has a 3D framework
# The original CSD entry OHIFET is in the monoclinic crystal system
# The framework has been calculated to contain at least 10.0% void space
# The void calculation uses a probe of radius 1.32A, grid spacing 0.4
#
###############################################################################

data_OHIFET
_chemical_formula_moiety         '(C152 H96 Cd8 N48 O52)n'
_symmetry_cell_setting           triclinic
_symmetry_space_group_name_H-M   'P 1'
_symmetry_Int_Tables_number      1
_space_group_name_Hall           'P 1'
loop_
_symmetry_equiv_pos_site_id
_symmetry_equiv_pos_as_xyz
1 x,y,z
_cell_length_a                   21.937(2)
_cell_length_b                   18.693(2)
_cell_length_c                   16.317(3)
_cell_angle_alpha                90
_cell_angle_beta                 127.554(2)
_cell_angle_gamma                90
_cell_volume                     5304.55
loop_
_atom_site_label
_atom_site_type_symbol
_atom_site_fract_x
_atom_site_fract_y
_atom_site_fract_z
O5 O 0.5856(3) 0.0169(2) 0.5009(4)
O6 O 0.6055(8) 0.2552(4) 0.2480(9)
O7 O 0.5943(9) 0.3184(4) 0.3468(10)
C9 C 0.5860(5) 0.0754(4) 0.4492(6)
C10 C 0.5976(4) 0.0700(3) 0.3754(6)
H4 H 0.602715 0.024247 0.354830
C11 C 0.6018(6) 0.1309(4) 0.3313(8)
H5 H 0.609899 0.127594 0.280498
C12 C 0.5940(7) 0.1964(5) 0.3621(9)
C13 C 0.5791(8) 0.2024(5) 0.4340(10)
H6 H 0.571402 0.248060 0.451897
C14 C 0.5758(8) 0.1420(5) 0.4781(9)
H7 H 0.566646 0.145160 0.527857
C15 C 0.5987(8) 0.2615(4) 0.3161(10)
N5 N 0.1720(3) 0.0705(3) 0.6062(4)
N6 N 0.1048(3) 0.0918(3) 0.5861(4)
C18 C 0.0840(4) 0.0493(3) 0.6306(5)
H10 H 0.039324 0.054269 0.627048
C19 C 0.1931(4) 0.0123(4) 0.6662(5)
Cd2 Cd 0.22321(2) 0.14700(2) 0.55264(3)
Cd1 Cd 0.22321(2) 0.85300(2) 0.05264(3)
O1 O 0.3394(2) 0.9237(2) 0.1529(3)
O2 O 0.3387(2) 0.8143(2) 0.1994(3)
O3 O 0.5924(3) 0.7037(3) 0.4721(5)
O4 O 0.6930(3) 0.7663(3) 0.5232(5)
C1 C 0.3722(3) 0.8732(3) 0.2145(4)
C2 C 0.4531(3) 0.8811(3) 0.3106(4)
C3 C 0.4826(3) 0.9473(3) 0.3580(5)
H1 H 0.451444 0.988909 0.329218
C4 C 0.5573(4) 0.9520(3) 0.4468(5)
C5 C 0.6052(4) 0.8930(3) 0.4894(5)
H2 H 0.657332 0.897408 0.548845
C6 C 0.5748(3) 0.8273(3) 0.4424(5)
C7 C 0.4996(3) 0.8207(3) 0.3558(5)
H3 H 0.479216 0.774831 0.326650
C8 C 0.6240(4) 0.7616(4) 0.4835(5)
Cd3 Cd 0.72321(2) 0.64700(2) 0.55264(3)
O9 O 0.1930(3) 0.7337(3) 0.0232(5)
N7 N 0.1720(3) 0.9295(3) 0.1062(4)
O3_2 O 0.0924(3) 0.2037(3) 0.4721(5)
O4_2 O 0.1930(3) 0.2663(3) 0.5232(5)
O5_2 O 0.0856(3) 0.5169(2) 0.5009(4)
O6_2 O 0.1055(8) 0.7552(4) 0.2480(9)
O7_2 O 0.0943(9) 0.8184(4) 0.3468(10)
C4_2 C 0.0573(4) 0.4520(3) 0.4468(5)
C5_2 C 0.1052(4) 0.3930(3) 0.4894(5)
H2_2 H 0.157332 0.397408 0.548845
C6_2 C 0.0748(3) 0.3273(3) 0.4424(5)
C8_2 C 0.1240(4) 0.2616(4) 0.4835(5)
C9_2 C 0.0860(5) 0.5754(4) 0.4492(6)
C10_2 C 0.0976(4) 0.5700(3) 0.3754(6)
H4_2 H 0.102715 0.524247 0.354830
C11_2 C 0.1018(6) 0.6309(4) 0.3313(8)
H5_2 H 0.109899 0.627594 0.280498
C12_2 C 0.0940(7) 0.6964(5) 0.3621(9)
C13_2 C 0.0791(8) 0.7024(5) 0.4340(10)
H6_2 H 0.071402 0.748060 0.451897
C14_2 C 0.0758(8) 0.6420(5) 0.4781(9)
H7_2 H 0.066646 0.645160 0.527857
C15_2 C 0.0987(8) 0.7615(4) 0.3161(10)
Cd1_2 Cd 0.72321(2) 0.35300(2) 0.05264(3)
O1_2 O 0.8394(2) 0.4237(2) 0.1529(3)
O2_2 O 0.8387(2) 0.3143(2) 0.1994(3)
C1_2 C 0.8722(3) 0.3732(3) 0.2145(4)
C2_2 C 0.9531(3) 0.3811(3) 0.3106(4)
C3_2 C 0.9826(3) 0.4473(3) 0.3580(5)
H1_2 H 0.951444 0.488909 0.329218
C7_2 C 0.9996(3) 0.3207(3) 0.3558(5)
H3_2 H 0.979216 0.274831 0.326650
O9_2 O 0.6930(3) 0.2337(3) 0.0232(5)
N7_2 N 0.6720(3) 0.4295(3) 0.1062(4)
N1 N 0.6474(3) 0.4401(3) 0.7512(5)
N2 N 0.6392(4) 0.4967(3) 0.6827(5)
N3 N 0.6579(3) 0.3355(3) 0.8183(4)
N4 N 0.6782(3) 0.3844(3) 0.8934(4)
N5_2 N 0.6720(3) 0.5705(3) 0.6062(4)
N6_2 N 0.6048(3) 0.5918(3) 0.5861(4)
C16 C 0.6388(4) 0.3665(3) 0.7317(5)
H8 H 0.622746 0.343311 0.669624
C17 C 0.6713(3) 0.4475(3) 0.8522(5)
H9 H 0.681281 0.491956 0.886475
C18_2 C 0.5840(4) 0.5493(3) 0.6306(5)
H10_2 H 0.539324 0.554269 0.627048
C19_2 C 0.6931(4) 0.5123(4) 0.6662(5)
H11 H 0.738570 0.485443 0.693714
O8 O 0.5924(3) 0.2963(3) 0.9721(5)
H2_3 H 0.657332 0.102592 0.048845
O1_3 O 0.3394(2) 0.0763(2) 0.6529(3)
O2_3 O 0.3387(2) 0.1857(2) 0.6994(3)
C1_3 C 0.3722(3) 0.1268(3) 0.7145(4)
C2_3 C 0.4531(3) 0.1189(3) 0.8106(4)
C3_3 C 0.4826(3) 0.0527(3) 0.8580(5)
H1_3 H 0.451444 0.011091 0.829218
C4_3 C 0.5573(4) 0.0480(3) 0.9468(5)
C5_3 C 0.6052(4) 0.1070(3) 0.9894(5)
C6_3 C 0.5748(3) 0.1727(3) 0.9424(5)
C7_3 C 0.4996(3) 0.1793(3) 0.8558(5)
H3_3 H 0.479216 0.225169 0.826650
C8_3 C 0.6240(4) 0.2384(4) 0.9835(5)
N1_2 N 0.1474(3) 0.0599(3) 0.2512(5)
N2_2 N 0.1392(4) 0.0033(3) 0.1827(5)
N3_2 N 0.1579(3) 0.1645(3) 0.3183(4)
N4_2 N 0.1782(3) 0.1156(3) 0.3934(4)
C16_2 C 0.1388(4) 0.1335(3) 0.2317(5)
H8_2 H 0.122746 0.156689 0.169624
C17_2 C 0.1713(3) 0.0525(3) 0.3522(5)
H9_2 H 0.181281 0.008044 0.386475
H11_2 H 0.238570 0.014557 0.193714
O6_3 O 0.6055(8) 0.7448(4) 0.7480(9)
O7_3 O 0.5943(9) 0.6816(4) 0.8468(10)
C9_3 C 0.5860(5) 0.9246(4) 0.9492(6)
C10_3 C 0.5976(4) 0.9300(3) 0.8754(6)
H4_3 H 0.602715 0.975753 0.854830
C11_3 C 0.6018(6) 0.8691(4) 0.8313(8)
H5_3 H 0.609899 0.872406 0.780498
C12_3 C 0.5940(7) 0.8036(5) 0.8621(9)
C13_3 C 0.5791(8) 0.7976(5) 0.9340(10)
H6_3 H 0.571402 0.751940 0.951897
C14_3 C 0.5758(8) 0.8580(5) 0.9781(9)
C15_3 C 0.5987(8) 0.7385(4) 0.8161(10)
N6_3 N 0.1048(3) 0.9082(3) 0.0861(4)
C18_3 C 0.0840(4) 0.9507(3) 0.1306(5)
H10_3 H 0.039324 0.945731 0.127048
C19_3 C 0.1931(4) 0.9877(4) 0.1662(5)
O5_3 O 0.0856(3) 0.4831(2) 0.0009(4)
H2_4 H 0.157332 0.602592 0.048845
H7_3 H 0.066646 0.354840 0.027857
O1_4 O 0.8394(2) 0.5763(2) 0.6529(3)
O2_4 O 0.8387(2) 0.6857(2) 0.6994(3)
C1_4 C 0.8722(3) 0.6268(3) 0.7145(4)
C2_4 C 0.9531(3) 0.6189(3) 0.8106(4)
C3_4 C 0.9826(3) 0.5527(3) 0.8580(5)
H1_4 H 0.951444 0.511091 0.829218
C7_4 C 0.9996(3) 0.6793(3) 0.8558(5)
H3_4 H 0.979216 0.725169 0.826650
N1_3 N 0.6474(3) 0.5599(3) 0.2512(5)
N2_3 N 0.6392(4) 0.5033(3) 0.1827(5)
N3_3 N 0.6579(3) 0.6645(3) 0.3183(4)
N4_3 N 0.6782(3) 0.6156(3) 0.3934(4)
N6_4 N 0.6048(3) 0.4082(3) 0.0861(4)
C16_3 C 0.6388(4) 0.6335(3) 0.2317(5)
H8_3 H 0.622746 0.656689 0.169624
C17_3 C 0.6713(3) 0.5525(3) 0.3522(5)
H9_3 H 0.681281 0.508044 0.386475
C18_4 C 0.5840(4) 0.4507(3) 0.1306(5)
H10_4 H 0.539324 0.445731 0.127048
C19_4 C 0.6931(4) 0.4877(4) 0.1662(5)
H11_3 H 0.738570 0.514557 0.193714
N1_4 N 0.1474(3) 0.9401(3) 0.7512(5)
N2_4 N 0.1392(4) 0.9967(3) 0.6827(5)
N3_4 N 0.1579(3) 0.8355(3) 0.8183(4)
N4_4 N 0.1782(3) 0.8844(3) 0.8934(4)
C16_4 C 0.1388(4) 0.8665(3) 0.7317(5)
H8_4 H 0.122746 0.843311 0.669624
C17_4 C 0.1713(3) 0.9475(3) 0.8522(5)
H9_4 H 0.181281 0.991956 0.886475
H11_4 H 0.238570 0.985443 0.693714
O8_2 O 0.0924(3) 0.7963(3) 0.9721(5)
O6_4 O 0.1055(8) 0.2448(4) 0.7480(9)
O7_4 O 0.0943(9) 0.1816(4) 0.8468(10)
C4_4 C 0.0573(4) 0.5480(3) 0.9468(5)
C5_4 C 0.1052(4) 0.6070(3) 0.9894(5)
C6_4 C 0.0748(3) 0.6727(3) 0.9424(5)
C8_4 C 0.1240(4) 0.7384(4) 0.9835(5)
C9_4 C 0.0860(5) 0.4246(4) 0.9492(6)
C10_4 C 0.0976(4) 0.4300(3) 0.8754(6)
H4_4 H 0.102715 0.475753 0.854830
C11_4 C 0.1018(6) 0.3691(4) 0.8313(8)
H5_4 H 0.109899 0.372406 0.780498
C12_4 C 0.0940(7) 0.3036(5) 0.8621(9)
C13_4 C 0.0791(8) 0.2976(5) 0.9340(10)
H6_4 H 0.071402 0.251940 0.951897
C14_4 C 0.0758(8) 0.3580(5) 0.9781(9)
C15_4 C 0.0987(8) 0.2385(4) 0.8161(10)
O6_5 O 0.3945(8) 0.2552(4) 0.2520(9)
O7_5 O 0.4057(9) 0.3184(4) 0.1532(10)
C9_5 C 0.4140(5) 0.0754(4) 0.0508(6)
C10_5 C 0.4024(4) 0.0700(3) 0.1246(6)
H4_5 H 0.397285 0.024247 0.145170
C11_5 C 0.3982(6) 0.1309(4) 0.1687(8)
H5_5 H 0.390101 0.127594 0.219502
C12_5 C 0.4060(7) 0.1964(5) 0.1379(9)
C13_5 C 0.4209(8) 0.2024(5) 0.0660(10)
H6_5 H 0.428598 0.248060 0.048103
C14_5 C 0.4242(8) 0.1420(5) 0.0219(9)
C15_5 C 0.4013(8) 0.2615(4) 0.1839(10)
N5_3 N 0.8280(3) 0.0705(3) 0.8938(4)
N6_5 N 0.8952(3) 0.0918(3) 0.9139(4)
C18_5 C 0.9160(4) 0.0493(3) 0.8694(5)
H10_5 H 0.960676 0.054269 0.872952
C19_5 C 0.8069(4) 0.0123(4) 0.8338(5)
Cd2_2 Cd 0.77679(2) 0.14700(2) 0.94736(3)
Cd1_3 Cd 0.77679(2) 0.85300(2) 0.44736(3)
O1_5 O 0.6606(2) 0.9237(2) 0.3471(3)
O2_5 O 0.6613(2) 0.8143(2) 0.3006(3)
O3_3 O 0.4076(3) 0.7037(3) 0.0279(5)
C1_5 C 0.6278(3) 0.8732(3) 0.2855(4)
C2_5 C 0.5469(3) 0.8811(3) 0.1894(4)
C3_5 C 0.5174(3) 0.9473(3) 0.1420(5)
H1_5 H 0.548556 0.988909 0.170782
C4_5 C 0.4427(4) 0.9520(3) 0.0532(5)
C5_5 C 0.3948(4) 0.8930(3) 0.0106(5)
C6_5 C 0.4252(3) 0.8273(3) 0.0576(5)
C7_5 C 0.5004(3) 0.8207(3) 0.1442(5)
H3_5 H 0.520784 0.774831 0.173350
C8_5 C 0.3760(4) 0.7616(4) 0.0165(5)
N1_5 N 0.8526(3) 0.9401(3) 0.7488(5)
N2_5 N 0.8608(4) 0.9967(3) 0.8173(5)
N3_5 N 0.8421(3) 0.8355(3) 0.6817(4)
N4_5 N 0.8218(3) 0.8844(3) 0.6066(4)
C16_5 C 0.8612(4) 0.8665(3) 0.7683(5)
H8_5 H 0.877254 0.843311 0.830376
C17_5 C 0.8287(3) 0.9475(3) 0.6478(5)
H9_5 H 0.818719 0.991956 0.613525
H11_5 H 0.761430 0.985443 0.806286
O8_3 O 0.9076(3) 0.7963(3) 0.5279(5)
O9_3 O 0.8070(3) 0.7337(3) 0.4768(5)
N7_3 N 0.8280(3) 0.9295(3) 0.3938(4)
O4_3 O 0.3070(3) 0.7663(3) 0.9768(5)
H2_5 H 0.342668 0.897408 0.951155
Cd3_2 Cd 0.27679(2) 0.64700(2) 0.94736(3)
Cd1_4 Cd 0.27679(2) 0.35300(2) 0.44736(3)
O1_6 O 0.1606(2) 0.4237(2) 0.3471(3)
O2_6 O 0.1613(2) 0.3143(2) 0.3006(3)
C1_6 C 0.1278(3) 0.3732(3) 0.2855(4)
C2_6 C 0.0469(3) 0.3811(3) 0.1894(4)
C3_6 C 0.0174(3) 0.4473(3) 0.1420(5)
H1_6 H 0.048556 0.488909 0.170782
C7_6 C 0.0004(3) 0.3207(3) 0.1442(5)
H3_6 H 0.020784 0.274831 0.173350
N1_6 N 0.3526(3) 0.4401(3) 0.7488(5)
N2_6 N 0.3608(4) 0.4967(3) 0.8173(5)
N3_6 N 0.3421(3) 0.3355(3) 0.6817(4)
N4_6 N 0.3218(3) 0.3844(3) 0.6066(4)
N5_4 N 0.3280(3) 0.5705(3) 0.8938(4)
N6_6 N 0.3952(3) 0.5918(3) 0.9139(4)
C16_6 C 0.3612(4) 0.3665(3) 0.7683(5)
H8_6 H 0.377254 0.343311 0.830376
C17_6 C 0.3287(3) 0.4475(3) 0.6478(5)
H9_6 H 0.318719 0.491956 0.613525
C18_6 C 0.4160(4) 0.5493(3) 0.8694(5)
H10_6 H 0.460676 0.554269 0.872952
C19_6 C 0.3069(4) 0.5123(4) 0.8338(5)
H11_6 H 0.261430 0.485443 0.806286
O8_4 O 0.4076(3) 0.2963(3) 0.5279(5)
O9_4 O 0.3070(3) 0.2337(3) 0.4768(5)
N7_4 N 0.3280(3) 0.4295(3) 0.3938(4)
O4_4 O 0.8070(3) 0.2663(3) 0.9768(5)
O5_4 O 0.9144(3) 0.5169(2) 0.9991(4)
H2_6 H 0.842668 0.397408 0.951155
H7_4 H 0.933354 0.645160 0.972143
O1_7 O 0.6606(2) 0.0763(2) 0.8471(3)
O2_7 O 0.6613(2) 0.1857(2) 0.8006(3)
C1_7 C 0.6278(3) 0.1268(3) 0.7855(4)
C2_7 C 0.5469(3) 0.1189(3) 0.6894(4)
C3_7 C 0.5174(3) 0.0527(3) 0.6420(5)
H1_7 H 0.548556 0.011091 0.670782
C4_6 C 0.4427(4) 0.0480(3) 0.5532(5)
C5_6 C 0.3948(4) 0.1070(3) 0.5106(5)
H2_7 H 0.342668 0.102592 0.451155
C6_6 C 0.4252(3) 0.1727(3) 0.5576(5)
C7_7 C 0.5004(3) 0.1793(3) 0.6442(5)
H3_7 H 0.520784 0.225169 0.673350
C8_6 C 0.3760(4) 0.2384(4) 0.5165(5)
N6_7 N 0.8952(3) 0.9082(3) 0.4139(4)
C18_7 C 0.9160(4) 0.9507(3) 0.3694(5)
H10_7 H 0.960676 0.945731 0.372952
C19_7 C 0.8069(4) 0.9877(4) 0.3338(5)
N1_7 N 0.3526(3) 0.5599(3) 0.2488(5)
N2_7 N 0.3608(4) 0.5033(3) 0.3173(5)
N3_7 N 0.3421(3) 0.6645(3) 0.1817(4)
N4_7 N 0.3218(3) 0.6156(3) 0.1066(4)
N6_8 N 0.3952(3) 0.4082(3) 0.4139(4)
C16_7 C 0.3612(4) 0.6335(3) 0.2683(5)
H8_7 H 0.377254 0.656689 0.330376
C17_7 C 0.3287(3) 0.5525(3) 0.1478(5)
H9_7 H 0.318719 0.508044 0.113525
C18_8 C 0.4160(4) 0.4507(3) 0.3694(5)
H10_8 H 0.460676 0.445731 0.372952
C19_8 C 0.3069(4) 0.4877(4) 0.3338(5)
H11_7 H 0.261430 0.514557 0.306286
O1_8 O 0.1606(2) 0.5763(2) 0.8471(3)
O2_8 O 0.1613(2) 0.6857(2) 0.8006(3)
C1_8 C 0.1278(3) 0.6268(3) 0.7855(4)
C2_8 C 0.0469(3) 0.6189(3) 0.6894(4)
C3_8 C 0.0174(3) 0.5527(3) 0.6420(5)
H1_8 H 0.048556 0.511091 0.670782
C7_8 C 0.0004(3) 0.6793(3) 0.6442(5)
H3_8 H 0.020784 0.725169 0.673350
O5_5 O 0.9144(3) 0.4831(2) 0.4991(4)
O6_6 O 0.8945(8) 0.2448(4) 0.7520(9)
O7_6 O 0.9057(9) 0.1816(4) 0.6532(10)
C4_7 C 0.9427(4) 0.5480(3) 0.5532(5)
C5_7 C 0.8948(4) 0.6070(3) 0.5106(5)
H2_8 H 0.842668 0.602592 0.451155
C6_7 C 0.9252(3) 0.6727(3) 0.5576(5)
C8_7 C 0.8760(4) 0.7384(4) 0.5165(5)
C9_6 C 0.9140(5) 0.4246(4) 0.5508(6)
C10_6 C 0.9024(4) 0.4300(3) 0.6246(6)
H4_6 H 0.897285 0.475753 0.645170
C11_6 C 0.8982(6) 0.3691(4) 0.6687(8)
H5_6 H 0.890101 0.372406 0.719502
C12_6 C 0.9060(7) 0.3036(5) 0.6379(9)
C13_6 C 0.9209(8) 0.2976(5) 0.5660(10)
H6_6 H 0.928598 0.251940 0.548103
C14_6 C 0.9242(8) 0.3580(5) 0.5219(9)
H7_5 H 0.933354 0.354840 0.472143
C15_6 C 0.9013(8) 0.2385(4) 0.6839(10)
O5_6 O 0.4144(3) 0.0169(2) 0.9991(4)
H7_6 H 0.433354 0.145160 0.972143
O3_4 O 0.9076(3) 0.2037(3) 0.0279(5)
O6_7 O 0.8945(8) 0.7552(4) 0.2520(9)
O7_7 O 0.9057(9) 0.8184(4) 0.1532(10)
C4_8 C 0.9427(4) 0.4520(3) 0.0532(5)
C5_8 C 0.8948(4) 0.3930(3) 0.0106(5)
C6_8 C 0.9252(3) 0.3273(3) 0.0576(5)
C8_8 C 0.8760(4) 0.2616(4) 0.0165(5)
C9_7 C 0.9140(5) 0.5754(4) 0.0508(6)
C10_7 C 0.9024(4) 0.5700(3) 0.1246(6)
H4_7 H 0.897285 0.524247 0.145170
C11_7 C 0.8982(6) 0.6309(4) 0.1687(8)
H5_7 H 0.890101 0.627594 0.219502
C12_7 C 0.9060(7) 0.6964(5) 0.1379(9)
C13_7 C 0.9209(8) 0.7024(5) 0.0660(10)
H6_7 H 0.928598 0.748060 0.048103
C14_7 C 0.9242(8) 0.6420(5) 0.0219(9)
C15_7 C 0.9013(8) 0.7615(4) 0.1839(10)
N1_8 N 0.8526(3) 0.0599(3) 0.2488(5)
N2_8 N 0.8608(4) 0.0033(3) 0.3173(5)
N3_8 N 0.8421(3) 0.1645(3) 0.1817(4)
N4_8 N 0.8218(3) 0.1156(3) 0.1066(4)
C16_8 C 0.8612(4) 0.1335(3) 0.2683(5)
H8_8 H 0.877254 0.156689 0.330376
C17_8 C 0.8287(3) 0.0525(3) 0.1478(5)
H9_8 H 0.818719 0.008044 0.113525
H11_8 H 0.761430 0.014557 0.306286
O5_7 O 0.4144(3) 0.9831(2) 0.4991(4)
O6_8 O 0.3945(8) 0.7448(4) 0.7520(9)
O7_8 O 0.4057(9) 0.6816(4) 0.6532(10)
C9_8 C 0.4140(5) 0.9246(4) 0.5508(6)
C10_8 C 0.4024(4) 0.9300(3) 0.6246(6)
H4_8 H 0.397285 0.975753 0.645170
C11_8 C 0.3982(6) 0.8691(4) 0.6687(8)
H5_8 H 0.390101 0.872406 0.719502
C12_8 C 0.4060(7) 0.8036(5) 0.6379(9)
C13_8 C 0.4209(8) 0.7976(5) 0.5660(10)
H6_8 H 0.428598 0.751940 0.548103
C14_8 C 0.4242(8) 0.8580(5) 0.5219(9)
H7_7 H 0.433354 0.854840 0.472143
C15_8 C 0.4013(8) 0.7385(4) 0.6839(10)
O5_8 O 0.5856(3) 0.9831(2) 0.0009(4)
H7_8 H 0.566646 0.854840 0.027857
loop_
_geom_bond_atom_site_label_1
_geom_bond_atom_site_label_2
_geom_bond_site_symmetry_1
_geom_bond_site_symmetry_2
O6 C15 1_555 1_555
O7 C15 1_555 1_555
C9 O5 1_555 1_555
C10 C9 1_555 1_555
H4 C10 1_555 1_555
C11 C10 1_555 1_555
H5 C11 1_555 1_555
C12 C11 1_555 1_555
C13 C12 1_555 1_555
H6 C13 1_555 1_555
C14 C9 1_555 1_555
H7 C14 1_555 1_555
C15 C12 1_555 1_555
C13 C14 1_555 1_555
N5 N6 1_555 1_555
N6 C18 1_555 1_555
C18 H10 1_555 1_555
Cd2 N5 1_555 1_555
N5 C19 1_555 1_555
Cd1 O1 1_555 1_555
O1 C1 1_555 1_555
O2 Cd1 1_555 1_555
O3 C8 1_555 1_555
O4 C8 1_555 1_555
C1 O2 1_555 1_555
C2 C1 1_555 1_555
C3 C2 1_555 1_555
H1 C3 1_555 1_555
C4 C3 1_555 1_555
C5 C4 1_555 1_555
H2 C5 1_555 1_555
C6 C5 1_555 1_555
C7 C2 1_555 1_555
H3 C7 1_555 1_555
C8 C6 1_555 1_555
Cd3 O3 1_555 1_555
O9 Cd1 1_555 1_555
N7 Cd1 1_555 1_555
O4 Cd3 1_555 1_555
C6 C7 1_555 1_555
O3_2 C8_2 1_555 1_555
O4_2 C8_2 1_555 1_555
O5_2 C4_2 1_555 1_555
O6_2 C15_2 1_555 1_555
O7_2 C15_2 1_555 1_555
C5_2 C4_2 1_555 1_555
H2_2 C5_2 1_555 1_555
C6_2 C5_2 1_555 1_555
C8_2 C6_2 1_555 1_555
C9_2 O5_2 1_555 1_555
C10_2 C9_2 1_555 1_555
H4_2 C10_2 1_555 1_555
C11_2 C10_2 1_555 1_555
H5_2 C11_2 1_555 1_555
C12_2 C11_2 1_555 1_555
C13_2 C12_2 1_555 1_555
H6_2 C13_2 1_555 1_555
C14_2 C9_2 1_555 1_555
H7_2 C14_2 1_555 1_555
C15_2 C12_2 1_555 1_555
Cd2 O3_2 1_555 1_555
O4_2 Cd2 1_555 1_555
C13_2 C14_2 1_555 1_555
Cd1_2 O1_2 1_555 1_555
O1_2 C1_2 1_555 1_555
O2_2 Cd1_2 1_555 1_555
C1_2 O2_2 1_555 1_555
C2_2 C1_2 1_555 1_555
C3_2 C2_2 1_555 1_555
H1_2 C3_2 1_555 1_555
C7_2 C2_2 1_555 1_555
H3_2 C7_2 1_555 1_555
O9_2 Cd1_2 1_555 1_555
N7_2 Cd1_2 1_555 1_555
N1 N2 1_555 1_555
N2 C18_2 1_555 1_555
N3 N4 1_555 1_555
N5_2 N6_2 1_555 1_555
N6_2 C18_2 1_555 1_555
C16 N1 1_555 1_555
H8 C16 1_555 1_555
C17 N1 1_555 1_555
H9 C17 1_555 1_555
C18_2 H10_2 1_555 1_555
C19_2 N2 1_555 1_555
H11 C19_2 1_555 1_555
Cd3 N5_2 1_555 1_555
N3 C16 1_555 1_555
N4 C17 1_555 1_555
N5_2 C19_2 1_555 1_555
Cd2 O1_3 1_555 1_555
O1_3 C1_3 1_555 1_555
O2_3 Cd2 1_555 1_555
O8 C8_3 1_555 1_555
C1_3 O2_3 1_555 1_555
C2_3 C1_3 1_555 1_555
C3_3 C2_3 1_555 1_555
H1_3 C3_3 1_555 1_555
C4_3 C3_3 1_555 1_555
C5_3 C4_3 1_555 1_555
C6_3 C5_3 1_555 1_555
C7_3 C2_3 1_555 1_555
H3_3 C7_3 1_555 1_555
C8_3 C6_3 1_555 1_555
N1_2 N2_2 1_555 1_555
N3_2 N4_2 1_555 1_555
N4_2 Cd2 1_555 1_555
C16_2 N1_2 1_555 1_555
H8_2 C16_2 1_555 1_555
C17_2 N1_2 1_555 1_555
H9_2 C17_2 1_555 1_555
C6_3 C7_3 1_555 1_555
N3_2 C16_2 1_555 1_555
N4_2 C17_2 1_555 1_555
O6_3 C15_3 1_555 1_555
O7_3 C15_3 1_555 1_555
C10_3 C9_3 1_555 1_555
H4_3 C10_3 1_555 1_555
C11_3 C10_3 1_555 1_555
H5_3 C11_3 1_555 1_555
C12_3 C11_3 1_555 1_555
C13_3 C12_3 1_555 1_555
H6_3 C13_3 1_555 1_555
C14_3 C9_3 1_555 1_555
C15_3 C12_3 1_555 1_555
N7 N6_3 1_555 1_555
N6_3 C18_3 1_555 1_555
C18_3 H10_3 1_555 1_555
C13_3 C14_3 1_555 1_555
N7 C19_3 1_555 1_555
Cd3 O1_4 1_555 1_555
O1_4 C1_4 1_555 1_555
O2_4 Cd3 1_555 1_555
C1_4 O2_4 1_555 1_555
C2_4 C1_4 1_555 1_555
C3_4 C2_4 1_555 1_555
H1_4 C3_4 1_555 1_555
C7_4 C2_4 1_555 1_555
H3_4 C7_4 1_555 1_555
N1_3 N2_3 1_555 1_555
N2_3 C18_4 1_555 1_555
N3_3 N4_3 1_555 1_555
N4_3 Cd3 1_555 1_555
N7_2 N6_4 1_555 1_555
N6_4 C18_4 1_555 1_555
C16_3 N1_3 1_555 1_555
H8_3 C16_3 1_555 1_555
C17_3 N1_3 1_555 1_555
H9_3 C17_3 1_555 1_555
C18_4 H10_4 1_555 1_555
C19_4 N2_3 1_555 1_555
H11_3 C19_4 1_555 1_555
N3_3 C16_3 1_555 1_555
N4_3 C17_3 1_555 1_555
N7_2 C19_4 1_555 1_555
N1_4 N2_4 1_555 1_555
N3_4 N4_4 1_555 1_555
C16_4 N1_4 1_555 1_555
H8_4 C16_4 1_555 1_555
C17_4 N1_4 1_555 1_555
H9_4 C17_4 1_555 1_555
N3_4 C16_4 1_555 1_555
N4_4 C17_4 1_555 1_555
O8_2 C8_4 1_555 1_555
O6_4 C15_4 1_555 1_555
O7_4 C15_4 1_555 1_555
C5_4 C4_4 1_555 1_555
C6_4 C5_4 1_555 1_555
C8_4 C6_4 1_555 1_555
C10_4 C9_4 1_555 1_555
H4_4 C10_4 1_555 1_555
C11_4 C10_4 1_555 1_555
H5_4 C11_4 1_555 1_555
C12_4 C11_4 1_555 1_555
C13_4 C12_4 1_555 1_555
H6_4 C13_4 1_555 1_555
C14_4 C9_4 1_555 1_555
C15_4 C12_4 1_555 1_555
C13_4 C14_4 1_555 1_555
O6_5 C15_5 1_555 1_555
O7_5 C15_5 1_555 1_555
C10_5 C9_5 1_555 1_555
H4_5 C10_5 1_555 1_555
C11_5 C10_5 1_555 1_555
H5_5 C11_5 1_555 1_555
C12_5 C11_5 1_555 1_555
C13_5 C12_5 1_555 1_555
H6_5 C13_5 1_555 1_555
C14_5 C9_5 1_555 1_555
C15_5 C12_5 1_555 1_555
N5_3 N6_5 1_555 1_555
N6_5 C18_5 1_555 1_555
C18_5 H10_5 1_555 1_555
Cd2_2 N5_3 1_555 1_555
C13_5 C14_5 1_555 1_555
N5_3 C19_5 1_555 1_555
Cd1_3 O1_5 1_555 1_555
O1_5 C1_5 1_555 1_555
O2_5 Cd1_3 1_555 1_555
O3_3 C8_5 1_555 1_555
C1_5 O2_5 1_555 1_555
C2_5 C1_5 1_555 1_555
C3_5 C2_5 1_555 1_555
H1_5 C3_5 1_555 1_555
C4_5 C3_5 1_555 1_555
C5_5 C4_5 1_555 1_555
C6_5 C5_5 1_555 1_555
C7_5 C2_5 1_555 1_555
H3_5 C7_5 1_555 1_555
C8_5 C6_5 1_555 1_555
N1_5 N2_5 1_555 1_555
N3_5 N4_5 1_555 1_555
N4_5 Cd1_3 1_555 1_555
C16_5 N1_5 1_555 1_555
H8_5 C16_5 1_555 1_555
C17_5 N1_5 1_555 1_555
H9_5 C17_5 1_555 1_555
O8_3 Cd1_3 1_555 1_555
O9_3 Cd1_3 1_555 1_555
N7_3 Cd1_3 1_555 1_555
C6_5 C7_5 1_555 1_555
N3_5 C16_5 1_555 1_555
N4_5 C17_5 1_555 1_555
O4_3 Cd3_2 1_555 1_555
Cd1_4 O1_6 1_555 1_555
O1_6 C1_6 1_555 1_555
O2_6 Cd1_4 1_555 1_555
C1_6 O2_6 1_555 1_555
C2_6 C1_6 1_555 1_555
C3_6 C2_6 1_555 1_555
H1_6 C3_6 1_555 1_555
C7_6 C2_6 1_555 1_555
H3_6 C7_6 1_555 1_555
N1_6 N2_6 1_555 1_555
N2_6 C18_6 1_555 1_555
N3_6 N4_6 1_555 1_555
N4_6 Cd1_4 1_555 1_555
N5_4 N6_6 1_555 1_555
N6_6 C18_6 1_555 1_555
C16_6 N1_6 1_555 1_555
H8_6 C16_6 1_555 1_555
C17_6 N1_6 1_555 1_555
H9_6 C17_6 1_555 1_555
C18_6 H10_6 1_555 1_555
C19_6 N2_6 1_555 1_555
H11_6 C19_6 1_555 1_555
Cd3_2 N5_4 1_555 1_555
O8_4 Cd1_4 1_555 1_555
O9_4 Cd1_4 1_555 1_555
N7_4 Cd1_4 1_555 1_555
N3_6 C16_6 1_555 1_555
N4_6 C17_6 1_555 1_555
N5_4 C19_6 1_555 1_555
O4_4 Cd2_2 1_555 1_555
Cd2_2 O1_7 1_555 1_555
O1_7 C1_7 1_555 1_555
O2_7 Cd2_2 1_555 1_555
O8_4 C8_6 1_555 1_555
O9_4 C8_6 1_555 1_555
C1_7 O2_7 1_555 1_555
C2_7 C1_7 1_555 1_555
C3_7 C2_7 1_555 1_555
H1_7 C3_7 1_555 1_555
C4_6 C3_7 1_555 1_555
C5_6 C4_6 1_555 1_555
H2_7 C5_6 1_555 1_555
C6_6 C5_6 1_555 1_555
C7_7 C2_7 1_555 1_555
H3_7 C7_7 1_555 1_555
C8_6 C6_6 1_555 1_555
C6_6 C7_7 1_555 1_555
N7_3 N6_7 1_555 1_555
N6_7 C18_7 1_555 1_555
C18_7 H10_7 1_555 1_555
N7_3 C19_7 1_555 1_555
N1_7 N2_7 1_555 1_555
N2_7 C18_8 1_555 1_555
N3_7 N4_7 1_555 1_555
N7_4 N6_8 1_555 1_555
N6_8 C18_8 1_555 1_555
C16_7 N1_7 1_555 1_555
H8_7 C16_7 1_555 1_555
C17_7 N1_7 1_555 1_555
H9_7 C17_7 1_555 1_555
C18_8 H10_8 1_555 1_555
C19_8 N2_7 1_555 1_555
H11_7 C19_8 1_555 1_555
N3_7 C16_7 1_555 1_555
N4_7 C17_7 1_555 1_555
N7_4 C19_8 1_555 1_555
Cd3_2 O1_8 1_555 1_555
O1_8 C1_8 1_555 1_555
O2_8 Cd3_2 1_555 1_555
C1_8 O2_8 1_555 1_555
C2_8 C1_8 1_555 1_555
C3_8 C2_8 1_555 1_555
H1_8 C3_8 1_555 1_555
C7_8 C2_8 1_555 1_555
H3_8 C7_8 1_555 1_555
O8_3 C8_7 1_555 1_555
O9_3 C8_7 1_555 1_555
O5_5 C4_7 1_555 1_555
O6_6 C15_6 1_555 1_555
O7_6 C15_6 1_555 1_555
C5_7 C4_7 1_555 1_555
H2_8 C5_7 1_555 1_555
C6_7 C5_7 1_555 1_555
C8_7 C6_7 1_555 1_555
C9_6 O5_5 1_555 1_555
C10_6 C9_6 1_555 1_555
H4_6 C10_6 1_555 1_555
C11_6 C10_6 1_555 1_555
H5_6 C11_6 1_555 1_555
C12_6 C11_6 1_555 1_555
C13_6 C12_6 1_555 1_555
H6_6 C13_6 1_555 1_555
C14_6 C9_6 1_555 1_555
H7_5 C14_6 1_555 1_555
C15_6 C12_6 1_555 1_555
C13_6 C14_6 1_555 1_555
O3_4 C8_8 1_555 1_555
O6_7 C15_7 1_555 1_555
O7_7 C15_7 1_555 1_555
C5_8 C4_8 1_555 1_555
C6_8 C5_8 1_555 1_555
C8_8 C6_8 1_555 1_555
C10_7 C9_7 1_555 1_555
H4_7 C10_7 1_555 1_555
C11_7 C10_7 1_555 1_555
H5_7 C11_7 1_555 1_555
C12_7 C11_7 1_555 1_555
C13_7 C12_7 1_555 1_555
H6_7 C13_7 1_555 1_555
C14_7 C9_7 1_555 1_555
C15_7 C12_7 1_555 1_555
C13_7 C14_7 1_555 1_555
N1_8 N2_8 1_555 1_555
N3_8 N4_8 1_555 1_555
C16_8 N1_8 1_555 1_555
H8_8 C16_8 1_555 1_555
C17_8 N1_8 1_555 1_555
H9_8 C17_8 1_555 1_555
N3_8 C16_8 1_555 1_555
N4_8 C17_8 1_555 1_555
O6_8 C15_8 1_555 1_555
O7_8 C15_8 1_555 1_555
C9_8 O5_7 1_555 1_555
C10_8 C9_8 1_555 1_555
H4_8 C10_8 1_555 1_555
C11_8 C10_8 1_555 1_555
H5_8 C11_8 1_555 1_555
C12_8 C11_8 1_555 1_555
C13_8 C12_8 1_555 1_555
H6_8 C13_8 1_555 1_555
C14_8 C9_8 1_555 1_555
H7_7 C14_8 1_555 1_555
C15_8 C12_8 1_555 1_555
C13_8 C14_8 1_555 1_555

#END
