
###############################################################################
#
# This file contains modified crystal structure data generated from the
# MOF subset of the Cambridge Structural Database (CSD) v542 
# hosted by the Cambridge Crystallographic Data Centre (CCDC).
#
# This work is licensed under the Creative Commons
# Attribution-NonCommercial-ShareAlike 4.0 International License.
# To view a copy of this license, visit
# http://creativecommons.org/licenses/by-nc-sa/4.0/
# or send a letter to
# Creative Commons, PO Box 1866, Mountain View, CA 94042, USA.
#
# CIF created using the CSD Python API on 22 February 2021
# The structure has been converted into the P1 space group
# The structure has a 3D framework
# The original CSD entry PIDJEU is in the monoclinic crystal system
# The framework has been calculated to contain at least 10.0% void space
# The void calculation uses a probe of radius 1.32A, grid spacing 0.4
#
###############################################################################

data_PIDJEU
_chemical_formula_moiety         '(C252 H168 Ho12 N12 O82)n'
_symmetry_cell_setting           triclinic
_symmetry_space_group_name_H-M   'P 1'
_symmetry_Int_Tables_number      1
_space_group_name_Hall           'P 1'
loop_
_symmetry_equiv_pos_site_id
_symmetry_equiv_pos_as_xyz
1 x,y,z
_cell_length_a                   14.8361(3)
_cell_length_b                   23.2536(6)
_cell_length_c                   25.1698(7)
_cell_angle_alpha                90
_cell_angle_beta                 102.645(3)
_cell_angle_gamma                90
_cell_volume                     8472.78
loop_
_atom_site_label
_atom_site_type_symbol
_atom_site_fract_x
_atom_site_fract_y
_atom_site_fract_z
O1 O 0.1446(3) 0.77707(17) 0.33524(15)
O10 O 0.1755(3) 0.84815(18) 0.28374(16)
C3 C 0.1229(4) 0.8254(3) 0.3114(2)
C12 C 0.0312(4) 0.8520(2) 0.3132(2)
C37 C 0.0139(4) 0.9084(3) 0.2968(3)
H17 H 0.059355 0.929696 0.285432
Ho5 Ho 0.26099(2) 0.75520(2) 0.27006(2)
Ho9 Ho 0.23732(2) 0.76093(2) 0.43053(2)
O4 O 0.7089(3) 0.19919(17) 0.30922(15)
O11 O 0.8209(3) 0.18835(18) 0.38198(16)
C2 C 0.7625(4) 0.1049(2) 0.3353(2)
C4 C 0.7650(4) 0.1676(3) 0.3426(2)
C8 C 0.6992(4) 0.0783(3) 0.2930(2)
H5 H 0.655937 0.100500 0.269309
C27 C 0.7006(4) 0.0204(3) 0.2862(2)
H11 H 0.658341 0.003304 0.257911
C44 C 0.8239(5) 0.0703(3) 0.3715(2)
H24 H 0.864374 0.087107 0.400816
C47 C 0.8253(5) 0.0116(3) 0.3643(2)
Ho7 Ho 0.73901(2) 0.25520(2) 0.22994(2)
Ho14 Ho 0.73422(2) 0.27950(2) 0.39269(2)
Ho3 Ho 0.26578(2) 0.77950(2) 0.10731(2)
O5 O 0.1668(3) 0.77101(19) 0.51041(16)
O12 O 0.0982(3) 0.70794(19) 0.55457(17)
O13 O 0.6707(3) 0.3126(2) 0.47317(18)
O14 O 0.3675(4) 0.6980(2) 0.08614(17)
O15 O 0.5996(3) 0.2643(2) 0.5266(2)
O16 O 0.3618(3) 0.8179(2) 0.2287(2)
O17 O 0.4270(4) 0.7977(3) 0.1597(2)
N1 N 0.7694(3) 0.9265(2) 0.3128(2)
O18 O 0.2566(4) 0.8885(2) 0.1144(2)
O19 O 0.2279(4) 0.6557(2) 0.2957(2)
N3 N 0.2472(3) 0.4056(2) 0.4008(2)
O20 O 0.2726(4) 0.6770(2) 0.3815(3)
C13 C 0.0954(4) 0.7521(3) 0.5258(2)
C15 C 0.7640(4) 0.9868(2) 0.3209(2)
C16 C 0.5982(4) 0.2994(3) 0.4896(2)
C17 C 0.5065(4) 0.3270(3) 0.4650(2)
C18 C 0.8579(4) 0.9023(3) 0.3124(2)
C19 C 0.5197(4) 0.8443(3) 0.2358(2)
C20 C 0.3339(4) 0.3785(3) 0.4219(2)
C21 C 0.1646(4) 0.3728(3) 0.3816(2)
C22 C 0.6854(4) 0.8968(2) 0.2869(2)
C23 C 0.0060(4) 0.7858(3) 0.5119(2)
C25 C 0.1663(4) 0.3209(3) 0.3546(2)
H8 H 0.222153 0.305280 0.350657
C26 C 0.2489(5) 0.6427(3) 0.3443(3)
O21 O 0.0959(5) 0.6925(3) 0.4219(2)
C28 C 0.2460(4) 0.5804(3) 0.3599(3)
C30 C 0.9618(5) 0.8212(3) 0.3289(3)
H13 H 0.972794 0.783177 0.339879
C31 C 0.2454(4) 0.4648(3) 0.3877(3)
C34 C 0.6055(4) 0.9037(3) 0.3068(2)
H14 H 0.607463 0.925958 0.337771
C35 C 0.5018(4) 0.3751(3) 0.4330(3)
H15 H 0.555310 0.390630 0.425338
C36 C 0.5233(4) 0.8780(3) 0.2813(3)
H16 H 0.470405 0.883462 0.294787
C38 C 0.0839(4) 0.2927(3) 0.3335(2)
H18 H 0.085252 0.258518 0.314485
C39 C 0.6837(4) 0.8634(3) 0.2414(3)
H19 H 0.736865 0.858035 0.228032
C41 C 0.8762(4) 0.8452(3) 0.3287(3)
H21 H 0.830814 0.823272 0.339398
C43 C 0.4238(5) 0.3051(3) 0.4754(3)
H23 H 0.426229 0.272729 0.497389
C45 C 0.2026(5) 0.4830(3) 0.3354(3)
H25 H 0.173819 0.456534 0.309488
H27 H 0.867047 0.988867 0.388297
C48 C 0.0788(5) 0.3941(3) 0.3885(3)
H28 H 0.077079 0.428237 0.407511
C49 C 0.0005(5) 0.8369(3) 0.4843(3)
H29 H 0.051704 0.850794 0.472658
C50 C 0.2034(5) 0.5401(3) 0.3228(3)
H30 H 0.174276 0.552144 0.288062
C51 C 0.9289(4) 0.9336(3) 0.2972(3)
H31 H 0.919041 0.972010 0.287237
C54 C 0.4162(5) 0.4007(3) 0.4120(3)
H34 H 0.413955 0.433641 0.390812
C55 C 0.6002(5) 0.8377(3) 0.2157(3)
H35 H 0.597971 0.815765 0.184589
C58 C 0.4299(4) 0.8178(3) 0.2058(3)
C60 C 0.3395(4) 0.3298(3) 0.4542(3)
H39 H 0.286056 0.313873 0.461540
C61 C 0.2860(5) 0.5047(3) 0.4254(3)
H40 H 0.313343 0.493044 0.460569
C62 C 0.2867(5) 0.5621(3) 0.4117(3)
H41 H 0.314839 0.588749 0.437693
Ho11 Ho 0.76268(2) 0.23907(2) 0.56947(2)
Ho15 Ho 0.26578(2) 0.72050(2) 0.60731(2)
O23 O 0.3451(3) 0.79307(17) 0.36620(15)
O24 O 0.1683(3) 0.80282(17) 0.17506(14)
O25 O 0.2911(3) 0.69919(17) 0.19078(15)
O26 O 0.1668(3) 0.72899(19) 0.01041(16)
O27 O 0.3105(3) 0.85032(18) 0.48511(16)
O28 O 0.4298(3) 0.7375(2) 0.32471(18)
O29 O 0.0902(3) 0.74314(19) 0.21685(17)
O30 O 0.1825(3) 0.86454(18) 0.42206(16)
O32 O 0.1791(3) 0.68835(18) 0.11802(16)
O33 O 0.0982(3) 0.79206(19) 0.05457(17)
O34 O 0.3293(3) 0.8126(2) 0.02683(18)
O35 O 0.4004(3) 0.7357(2) 0.4734(2)
O6 O 0.6895(3) 0.14968(18) 0.51489(16)
O9 O 0.8175(3) 0.13546(18) 0.57794(16)
C6 C 0.7579(4) 0.0564(2) 0.5215(2)
C9 C 0.7548(4) 0.1171(3) 0.5386(2)
C29 C 0.6938(5) 0.0353(3) 0.4775(2)
H12 H 0.650476 0.060152 0.457138
C52 C 0.8251(5) 0.0184(3) 0.5499(3)
H32 H 0.870903 0.032466 0.578253
O3 O 0.8317(3) 0.30282(17) 0.32494(14)
O8 O 0.9098(3) 0.24314(19) 0.28315(17)
N2 N 0.7563(3) 0.8810(2) 0.4805(2)
C1 C 0.4240(4) 0.7747(2) 0.3602(2)
C5 C 0.9087(4) 0.2840(3) 0.3155(2)
C7 C 0.5109(4) 0.7990(3) 0.3951(2)
C10 C 0.9983(4) 0.3142(3) 0.3399(2)
C11 C 0.9971(4) 0.3652(3) 0.3676(3)
H6 H 0.941254 0.380226 0.372320
C14 C 0.5065(4) 0.8396(3) 0.4345(3)
H7 H 0.449569 0.849699 0.441497
C24 C 0.7582(4) 0.9398(3) 0.4932(3)
C32 C 0.6728(4) 0.8527(3) 0.4532(2)
C33 C 0.8416(4) 0.8490(3) 0.4918(2)
C40 C 0.5866(4) 0.8655(3) 0.4636(3)
H20 H 0.582542 0.891870 0.490758
C42 C 0.5985(4) 0.7841(3) 0.3866(2)
H22 H 0.602811 0.755877 0.361122
C46 C 0.6930(4) 0.9780(3) 0.4634(3)
H26 H 0.648931 0.964530 0.433830
C53 C 0.9286(4) 0.7670(3) 0.5305(3)
H33 H 0.931704 0.732871 0.550157
C56 C 0.8248(5) 0.9615(3) 0.5370(3)
H36 H 0.868780 0.936995 0.557296
C57 C 0.9183(4) 0.8682(3) 0.4736(3)
H37 H 0.914718 0.902361 0.454070
C59 C 0.6787(4) 0.8101(3) 0.4152(3)
H38 H 0.735895 0.799271 0.408988
C63 C 0.8468(4) 0.7988(3) 0.5199(3)
H42 H 0.795704 0.785618 0.532139
O2 O 0.6549(3) 0.29307(17) 0.13380(15)
O7 O 0.5702(3) 0.2375(2) 0.17529(18)
N2_2 N 0.2437(3) 0.3810(2) 0.0195(2)
C1_2 C 0.5760(4) 0.2747(2) 0.1398(2)
C7_2 C 0.4891(4) 0.2990(3) 0.1049(2)
C14_2 C 0.4935(4) 0.3396(3) 0.0655(3)
H7_2 H 0.550431 0.349699 0.058503
C24_2 C 0.2418(4) 0.4398(3) 0.0068(3)
C29_2 C 0.3062(5) 0.5353(3) 0.0225(2)
H12_2 H 0.349524 0.560152 0.042862
C32_2 C 0.3272(4) 0.3527(3) 0.0468(2)
C33_2 C 0.1584(4) 0.3490(3) 0.0082(2)
C40_2 C 0.4134(4) 0.3655(3) 0.0364(3)
H20_2 H 0.417458 0.391870 0.009242
C42_2 C 0.4015(4) 0.2841(3) 0.1134(2)
H22_2 H 0.397189 0.255877 0.138878
C46_2 C 0.3070(4) 0.4780(3) 0.0366(3)
H26_2 H 0.351069 0.464530 0.066170
C57_2 C 0.0817(4) 0.3682(3) 0.0264(3)
H37_2 H 0.085282 0.402361 0.045930
C59_2 C 0.3213(4) 0.3101(3) 0.0848(3)
H38_2 H 0.264105 0.299271 0.091012
Ho8 Ho 0.76268(2) 0.26093(2) 0.06947(2)
O6_2 O 0.3105(3) 0.64968(18) 0.98511(16)
O9_2 O 0.1825(3) 0.63546(18) 0.92206(16)
C6_2 C 0.2421(4) 0.5564(2) 0.9785(2)
C9_2 C 0.2452(4) 0.6171(3) 0.9614(2)
C52_2 C 0.1749(5) 0.5184(3) 0.9501(3)
H32_2 H 0.129097 0.532466 0.921747
C53_2 C 0.0714(4) 0.2670(3) 0.9695(3)
H33_2 H 0.068296 0.232871 0.949843
C56_2 C 0.1752(5) 0.4615(3) 0.9630(3)
H36_2 H 0.131220 0.436995 0.942704
C63_2 C 0.1532(4) 0.2988(3) 0.9801(3)
H42_2 H 0.204296 0.285618 0.967861
Ho10 Ho 0.23732(2) 0.73907(2) 0.93053(2)
C5_2 C 0.0913(4) 0.7840(3) 0.1845(2)
C10_2 C 0.0017(4) 0.8142(3) 0.1601(2)
C11_2 C 0.0029(4) 0.8652(3) 0.1324(3)
H6_2 H 0.058746 0.880226 0.127680
O14_2 O 0.6325(4) 0.1980(2) 0.41386(17)
O16_2 O 0.6382(3) 0.3179(2) 0.2713(2)
O17_2 O 0.5730(4) 0.2977(3) 0.3403(2)
N1_2 N 0.2306(3) 0.4265(2) 0.1872(2)
O18_2 O 0.7434(4) 0.3885(2) 0.3856(2)
O19_2 O 0.7721(4) 0.1557(2) 0.2043(2)
O20_2 O 0.7274(4) 0.1770(2) 0.1185(3)
C2_2 C 0.2375(4) 0.6049(2) 0.1647(2)
C4_2 C 0.2350(4) 0.6676(3) 0.1574(2)
C8_2 C 0.3008(4) 0.5783(3) 0.2070(2)
H5_2 H 0.344063 0.600500 0.230691
C15_2 C 0.2360(4) 0.4868(2) 0.1791(2)
C18_2 C 0.1421(4) 0.4023(3) 0.1876(2)
C19_2 C 0.4803(4) 0.3443(3) 0.2642(2)
C22_2 C 0.3146(4) 0.3968(2) 0.2131(2)
C26_2 C 0.7511(5) 0.1427(3) 0.1557(3)
O21_2 O 0.9041(5) 0.1925(3) 0.0781(2)
C27_2 C 0.2994(4) 0.5204(3) 0.2138(2)
H11_2 H 0.341659 0.503304 0.242089
C28_2 C 0.7540(4) 0.0804(3) 0.1401(3)
C30_2 C 0.0382(5) 0.3212(3) 0.1711(3)
H13_2 H 0.027206 0.283177 0.160121
C34_2 C 0.3945(4) 0.4037(3) 0.1932(2)
H14_2 H 0.392537 0.425958 0.162229
C36_2 C 0.4767(4) 0.3780(3) 0.2187(3)
H16_2 H 0.529595 0.383462 0.205213
C39_2 C 0.3163(4) 0.3634(3) 0.2586(3)
H19_2 H 0.263135 0.358035 0.271968
C41_2 C 0.1238(4) 0.3452(3) 0.1713(3)
H21_2 H 0.169186 0.323272 0.160602
C44_2 C 0.1761(5) 0.5703(3) 0.1285(2)
H24_2 H 0.135626 0.587107 0.099184
C47_2 C 0.1747(5) 0.5116(3) 0.1357(2)
H27_2 H 0.132953 0.488867 0.111703
C49_2 C 0.9995(5) 0.3369(3) 0.0157(3)
H29_2 H 0.948296 0.350794 0.027342
C50_2 C 0.7966(5) 0.0401(3) 0.1772(3)
H30_2 H 0.825724 0.052144 0.211938
C51_2 C 0.0711(4) 0.4336(3) 0.2028(3)
H31_2 H 0.080959 0.472010 0.212763
C55_2 C 0.3998(5) 0.3377(3) 0.2843(3)
H35_2 H 0.402029 0.315765 0.315411
C58_2 C 0.5701(4) 0.3178(3) 0.2942(3)
C61_2 C 0.7140(5) 0.0047(3) 0.0746(3)
C62_2 C 0.7133(5) 0.0621(3) 0.0883(3)
H41_2 H 0.685161 0.088749 0.062307
O22 O 0.8554(3) 0.27707(17) 0.16476(15)
O26_2 O 0.8332(3) 0.22899(19) 0.48959(16)
O27_2 O 0.6895(3) 0.35032(18) 0.01489(16)
O30_2 O 0.8175(3) 0.36454(18) 0.07794(16)
O31 O 0.8245(3) 0.34815(18) 0.21626(16)
O33_2 O 0.9018(3) 0.29206(19) 0.44543(17)
O35_2 O 0.5996(3) 0.2357(2) 0.0266(2)
O5_2 O 0.8332(3) 0.27101(19) 0.98959(16)
O12_2 O 0.9018(3) 0.20794(19) 0.94543(17)
C13_2 C 0.9046(4) 0.2521(3) 0.9742(2)
C23_2 C 0.9940(4) 0.2858(3) 0.9881(2)
Ho15_2 Ho 0.73422(2) 0.22050(2) 0.89269(2)
N3_2 N 0.7528(3) 0.9056(2) 0.0992(2)
C16_2 C 0.4018(4) 0.7994(3) 0.0104(2)
C17_2 C 0.4935(4) 0.8270(3) 0.0350(2)
C20_2 C 0.6661(4) 0.8785(3) 0.0781(2)
C21_2 C 0.8354(4) 0.8728(3) 0.1184(2)
C25_2 C 0.8337(4) 0.8209(3) 0.1454(2)
H8_2 H 0.777847 0.805280 0.149343
C31_2 C 0.7546(4) 0.9648(3) 0.1123(3)
C35_2 C 0.4982(4) 0.8751(3) 0.0670(3)
H15_2 H 0.444690 0.890630 0.074662
C38_2 C 0.9161(4) 0.7927(3) 0.1665(2)
H18_2 H 0.914748 0.758518 0.185515
C43_2 C 0.5762(5) 0.8051(3) 0.0246(3)
H23_2 H 0.573771 0.772729 0.002611
C45_2 C 0.7974(5) 0.9830(3) 0.1646(3)
H25_2 H 0.826181 0.956534 0.190512
C48_2 C 0.9212(5) 0.8941(3) 0.1115(3)
H28_2 H 0.922921 0.928237 0.092489
C54_2 C 0.5838(5) 0.9007(3) 0.0880(3)
H34_2 H 0.586045 0.933641 0.109188
C60_2 C 0.6605(4) 0.8298(3) 0.0458(3)
H39_2 H 0.713944 0.813873 0.038460
H40_2 H 0.686657 0.993044 0.039431
O15_2 O 0.4004(3) 0.7643(2) 0.9734(2)
C3_2 C 0.8771(4) 0.3254(3) 0.1886(2)
C12_2 C 0.9688(4) 0.3520(2) 0.1868(2)
C37_2 C 0.9861(4) 0.4084(3) 0.2032(3)
H17_2 H 0.940645 0.429696 0.214568
O2_2 O 0.6549(3) 0.20693(17) 0.63380(15)
O3_2 O 0.1683(3) 0.69718(17) 0.67506(14)
O7_2 O 0.5702(3) 0.2625(2) 0.67529(18)
O8_2 O 0.0902(3) 0.75686(19) 0.71685(17)
N2_3 N 0.2437(3) 0.1190(2) 0.5195(2)
C1_3 C 0.5760(4) 0.2253(2) 0.6398(2)
C5_3 C 0.0913(4) 0.7160(3) 0.6845(2)
C7_3 C 0.4891(4) 0.2010(3) 0.6049(2)
C10_3 C 0.0017(4) 0.6858(3) 0.6601(2)
C11_3 C 0.0029(4) 0.6348(3) 0.6324(3)
H6_3 H 0.058746 0.619774 0.627680
C14_3 C 0.4935(4) 0.1604(3) 0.5655(3)
H7_3 H 0.550431 0.150301 0.558503
C24_3 C 0.2418(4) 0.0602(3) 0.5068(3)
C32_3 C 0.3272(4) 0.1473(3) 0.5468(2)
C33_3 C 0.1584(4) 0.1510(3) 0.5082(2)
C40_3 C 0.4134(4) 0.1345(3) 0.5364(3)
H20_3 H 0.417458 0.108130 0.509242
C42_3 C 0.4015(4) 0.2159(3) 0.6134(2)
H22_3 H 0.397189 0.244123 0.638878
C46_3 C 0.3070(4) 0.0220(3) 0.5366(3)
H26_3 H 0.351069 0.035470 0.566170
C53_3 C 0.0714(4) 0.2330(3) 0.4695(3)
H33_3 H 0.068296 0.267129 0.449843
C56_3 C 0.1752(5) 0.0385(3) 0.4630(3)
H36_3 H 0.131220 0.063005 0.442704
C57_3 C 0.0817(4) 0.1318(3) 0.5264(3)
H37_3 H 0.085282 0.097639 0.545930
C59_3 C 0.3213(4) 0.1899(3) 0.5848(3)
H38_3 H 0.264105 0.200729 0.591012
C63_3 C 0.1532(4) 0.2012(3) 0.4801(3)
H42_3 H 0.204296 0.214382 0.467861
Ho4 Ho 0.73901(2) 0.24480(2) 0.72994(2)
Ho6 Ho 0.26099(2) 0.74480(2) 0.77006(2)
C6_3 C 0.2421(4) 0.9436(2) 0.4785(2)
C9_3 C 0.2452(4) 0.8829(3) 0.4614(2)
C29_3 C 0.3062(5) 0.9647(3) 0.5225(2)
H12_3 H 0.349524 0.939848 0.542862
C52_3 C 0.1749(5) 0.9816(3) 0.4501(3)
H32_3 H 0.129097 0.967534 0.421747
O13_2 O 0.3293(3) 0.6874(2) 0.52683(18)
O14_3 O 0.6325(4) 0.3020(2) 0.91386(17)
O16_3 O 0.6382(3) 0.1821(2) 0.7713(2)
O17_3 O 0.5730(4) 0.2023(3) 0.8403(2)
N1_3 N 0.2306(3) 0.0735(2) 0.6872(2)
O18_3 O 0.7434(4) 0.1115(2) 0.8856(2)
O19_3 O 0.7721(4) 0.3443(2) 0.7043(2)
N3_3 N 0.7528(3) 0.5944(2) 0.5992(2)
O20_3 O 0.7274(4) 0.3230(2) 0.6185(3)
C13_3 C 0.9046(4) 0.2479(3) 0.4742(2)
C15_3 C 0.2360(4) 0.0132(2) 0.6791(2)
C16_3 C 0.4018(4) 0.7006(3) 0.5104(2)
C17_3 C 0.4935(4) 0.6730(3) 0.5350(2)
C18_3 C 0.1421(4) 0.0977(3) 0.6876(2)
C19_3 C 0.4803(4) 0.1557(3) 0.7642(2)
C20_3 C 0.6661(4) 0.6215(3) 0.5781(2)
C21_3 C 0.8354(4) 0.6272(3) 0.6184(2)
C22_3 C 0.3146(4) 0.1032(2) 0.7131(2)
C23_3 C 0.9940(4) 0.2142(3) 0.4881(2)
C25_3 C 0.8337(4) 0.6791(3) 0.6454(2)
H8_3 H 0.777847 0.694720 0.649343
C26_3 C 0.7511(5) 0.3573(3) 0.6557(3)
O21_3 O 0.9041(5) 0.3075(3) 0.5781(2)
C28_3 C 0.7540(4) 0.4196(3) 0.6401(3)
C30_3 C 0.0382(5) 0.1788(3) 0.6711(3)
H13_3 H 0.027206 0.216823 0.660121
C31_3 C 0.7546(4) 0.5352(3) 0.6123(3)
C34_3 C 0.3945(4) 0.0963(3) 0.6932(2)
H14_3 H 0.392537 0.074042 0.662229
C35_3 C 0.4982(4) 0.6249(3) 0.5670(3)
H15_3 H 0.444690 0.609370 0.574662
C36_3 C 0.4767(4) 0.1220(3) 0.7187(3)
H16_3 H 0.529595 0.116538 0.705213
C38_3 C 0.9161(4) 0.7073(3) 0.6665(2)
H18_3 H 0.914748 0.741482 0.685515
C39_3 C 0.3163(4) 0.1366(3) 0.7586(3)
H19_3 H 0.263135 0.141965 0.771968
C41_3 C 0.1238(4) 0.1548(3) 0.6713(3)
H21_3 H 0.169186 0.176728 0.660602
C43_3 C 0.5762(5) 0.6949(3) 0.5246(3)
H23_3 H 0.573771 0.727271 0.502611
C45_3 C 0.7974(5) 0.5170(3) 0.6646(3)
H25_3 H 0.826181 0.543466 0.690512
H27_3 H 0.132953 0.011133 0.611703
C48_3 C 0.9212(5) 0.6059(3) 0.6115(3)
H28_3 H 0.922921 0.571763 0.592489
C49_3 C 0.9995(5) 0.1631(3) 0.5157(3)
H29_3 H 0.948296 0.149206 0.527342
C50_3 C 0.7966(5) 0.4599(3) 0.6772(3)
H30_3 H 0.825724 0.447856 0.711938
C51_3 C 0.0711(4) 0.0664(3) 0.7028(3)
H31_3 H 0.080959 0.027990 0.712763
C54_3 C 0.5838(5) 0.5993(3) 0.5880(3)
H34_3 H 0.586045 0.566359 0.609188
C55_3 C 0.3998(5) 0.1623(3) 0.7843(3)
H35_3 H 0.402029 0.184235 0.815411
C58_3 C 0.5701(4) 0.1822(3) 0.7942(3)
C60_3 C 0.6605(4) 0.6702(3) 0.5458(3)
H39_3 H 0.713944 0.686127 0.538460
C61_3 C 0.7140(5) 0.4953(3) 0.5746(3)
H40_3 H 0.686657 0.506956 0.539431
C62_3 C 0.7133(5) 0.4379(3) 0.5883(3)
H41_3 H 0.685161 0.411251 0.562307
O22_2 O 0.8554(3) 0.22293(17) 0.66476(15)
O24_2 O 0.8317(3) 0.19718(17) 0.82494(14)
O25_2 O 0.7089(3) 0.30081(17) 0.80922(15)
O29_2 O 0.9098(3) 0.25686(19) 0.78315(17)
O31_2 O 0.8245(3) 0.15185(18) 0.71626(16)
O32_2 O 0.8209(3) 0.31165(18) 0.88198(16)
O34_2 O 0.6707(3) 0.1874(2) 0.97317(18)
O4_2 O 0.2911(3) 0.80081(17) 0.69078(15)
O11_2 O 0.1791(3) 0.81165(18) 0.61802(16)
C2_3 C 0.2375(4) 0.8951(2) 0.6647(2)
C4_3 C 0.2350(4) 0.8324(3) 0.6574(2)
C8_3 C 0.3008(4) 0.9217(3) 0.7070(2)
H5_3 H 0.344063 0.899500 0.730691
C27_3 C 0.2994(4) 0.9796(3) 0.7138(2)
H11_3 H 0.341659 0.996696 0.742089
C44_3 C 0.1761(5) 0.9297(3) 0.6285(2)
H24_3 H 0.135626 0.912893 0.599184
C47_3 C 0.1747(5) 0.9884(3) 0.6357(2)
C3_3 C 0.8771(4) 0.1746(3) 0.6886(2)
C12_3 C 0.9688(4) 0.1480(2) 0.6868(2)
C37_3 C 0.9861(4) 0.0916(3) 0.7032(3)
H17_3 H 0.940645 0.070304 0.714568
O1_2 O 0.1446(3) 0.72293(17) 0.83524(15)
O10_2 O 0.1755(3) 0.65185(18) 0.78374(16)
C3_4 C 0.1229(4) 0.6746(3) 0.8114(2)
C12_4 C 0.0312(4) 0.6480(2) 0.8132(2)
C37_4 C 0.0139(4) 0.5916(3) 0.7968(3)
H17_4 H 0.059355 0.570304 0.785432
N3_4 N 0.2472(3) 0.0944(2) 0.9008(2)
C16_4 C 0.5982(4) 0.2006(3) 0.9896(2)
C17_4 C 0.5065(4) 0.1730(3) 0.9650(2)
C20_4 C 0.3339(4) 0.1215(3) 0.9219(2)
C21_4 C 0.1646(4) 0.1272(3) 0.8816(2)
C25_4 C 0.1663(4) 0.1791(3) 0.8546(2)
H8_4 H 0.222153 0.194720 0.850657
C31_4 C 0.2454(4) 0.0352(3) 0.8877(3)
C35_4 C 0.5018(4) 0.1249(3) 0.9330(3)
H15_4 H 0.555310 0.109370 0.925338
C38_4 C 0.0839(4) 0.2073(3) 0.8335(2)
H18_4 H 0.085252 0.241482 0.814485
C43_4 C 0.4238(5) 0.1949(3) 0.9754(3)
H23_4 H 0.426229 0.227271 0.997389
C45_4 C 0.2026(5) 0.0170(3) 0.8354(3)
H25_4 H 0.173819 0.043466 0.809488
C48_4 C 0.0788(5) 0.1059(3) 0.8885(3)
H28_4 H 0.077079 0.071763 0.907511
C54_4 C 0.4162(5) 0.0993(3) 0.9120(3)
H34_4 H 0.413955 0.066359 0.890812
C60_4 C 0.3395(4) 0.1702(3) 0.9542(3)
H39_4 H 0.286056 0.186127 0.961540
H40_4 H 0.313343 0.006956 0.960569
C13_4 C 0.0954(4) 0.7479(3) 0.0258(2)
C23_4 C 0.0060(4) 0.7142(3) 0.0119(2)
O14_4 O 0.3675(4) 0.8020(2) 0.58614(17)
O16_4 O 0.3618(3) 0.6821(2) 0.7287(2)
O17_4 O 0.4270(4) 0.7023(3) 0.6597(2)
N1_4 N 0.7694(3) 0.5735(2) 0.8128(2)
O18_4 O 0.2566(4) 0.6115(2) 0.6144(2)
O19_4 O 0.2279(4) 0.8443(2) 0.7957(2)
O20_4 O 0.2726(4) 0.8230(2) 0.8815(3)
C2_4 C 0.7625(4) 0.3951(2) 0.8353(2)
C4_4 C 0.7650(4) 0.3324(3) 0.8426(2)
C8_4 C 0.6992(4) 0.4217(3) 0.7930(2)
H5_4 H 0.655937 0.399500 0.769309
C15_4 C 0.7640(4) 0.5132(2) 0.8209(2)
C18_4 C 0.8579(4) 0.5977(3) 0.8124(2)
C19_4 C 0.5197(4) 0.6557(3) 0.7358(2)
C22_4 C 0.6854(4) 0.6032(2) 0.7869(2)
C26_4 C 0.2489(5) 0.8573(3) 0.8443(3)
O21_4 O 0.0959(5) 0.8075(3) 0.9219(2)
C27_4 C 0.7006(4) 0.4796(3) 0.7862(2)
H11_4 H 0.658341 0.496696 0.757911
C28_4 C 0.2460(4) 0.9196(3) 0.8599(3)
C30_4 C 0.9618(5) 0.6788(3) 0.8289(3)
H13_4 H 0.972794 0.716823 0.839879
C34_4 C 0.6055(4) 0.5963(3) 0.8068(2)
H14_4 H 0.607463 0.574042 0.837771
C36_4 C 0.5233(4) 0.6220(3) 0.7813(3)
H16_4 H 0.470405 0.616538 0.794787
C39_4 C 0.6837(4) 0.6366(3) 0.7414(3)
H19_4 H 0.736865 0.641965 0.728032
C41_4 C 0.8762(4) 0.6548(3) 0.8287(3)
H21_4 H 0.830814 0.676728 0.839398
C44_4 C 0.8239(5) 0.4297(3) 0.8715(2)
H24_4 H 0.864374 0.412893 0.900816
C47_4 C 0.8253(5) 0.4884(3) 0.8643(2)
H27_4 H 0.867047 0.511133 0.888297
C49_4 C 0.0005(5) 0.6631(3) 0.9843(3)
H29_4 H 0.051704 0.649206 0.972658
C50_4 C 0.2034(5) 0.9599(3) 0.8228(3)
H30_4 H 0.174276 0.947856 0.788062
C51_4 C 0.9289(4) 0.5664(3) 0.7972(3)
H31_4 H 0.919041 0.527990 0.787237
C55_4 C 0.6002(5) 0.6623(3) 0.7157(3)
H35_4 H 0.597971 0.684235 0.684589
C58_4 C 0.4299(4) 0.6822(3) 0.7058(3)
C61_4 C 0.2860(5) 0.9953(3) 0.9254(3)
C62_4 C 0.2867(5) 0.9379(3) 0.9117(3)
H41_4 H 0.314839 0.911251 0.937693
O23_2 O 0.3451(3) 0.70693(17) 0.86620(15)
O28_2 O 0.4298(3) 0.7625(2) 0.82471(18)
C5_4 C 0.9087(4) 0.2160(3) 0.8155(2)
C10_4 C 0.9983(4) 0.1858(3) 0.8399(2)
C11_4 C 0.9971(4) 0.1348(3) 0.8676(3)
H6_4 H 0.941254 0.119774 0.872320
C6_4 C 0.7579(4) 0.4436(2) 0.0215(2)
C9_4 C 0.7548(4) 0.3829(3) 0.0386(2)
C52_4 C 0.8251(5) 0.4816(3) 0.0499(3)
H32_4 H 0.870903 0.467534 0.078253
C53_4 C 0.9286(4) 0.7330(3) 0.0305(3)
H33_4 H 0.931704 0.767129 0.050157
C56_4 C 0.8248(5) 0.5385(3) 0.0370(3)
H36_4 H 0.868780 0.563005 0.057296
C63_4 C 0.8468(4) 0.7012(3) 0.0199(3)
H42_4 H 0.795704 0.714382 0.032139
N2_4 N 0.7563(3) 0.6190(2) 0.9805(2)
C1_4 C 0.4240(4) 0.7253(2) 0.8602(2)
C7_4 C 0.5109(4) 0.7010(3) 0.8951(2)
C14_4 C 0.5065(4) 0.6604(3) 0.9345(3)
H7_4 H 0.449569 0.650301 0.941497
C24_4 C 0.7582(4) 0.5602(3) 0.9932(3)
C29_4 C 0.6938(5) 0.4647(3) 0.9775(2)
H12_4 H 0.650476 0.439848 0.957138
C32_4 C 0.6728(4) 0.6473(3) 0.9532(2)
C33_4 C 0.8416(4) 0.6510(3) 0.9918(2)
C40_4 C 0.5866(4) 0.6345(3) 0.9636(3)
H20_4 H 0.582542 0.608130 0.990758
C42_4 C 0.5985(4) 0.7159(3) 0.8866(2)
H22_4 H 0.602811 0.744123 0.861122
C46_4 C 0.6930(4) 0.5220(3) 0.9634(3)
H26_4 H 0.648931 0.535470 0.933830
C57_4 C 0.9183(4) 0.6318(3) 0.9736(3)
H37_4 H 0.914718 0.597639 0.954070
C59_4 C 0.6787(4) 0.6899(3) 0.9152(3)
H38_4 H 0.735895 0.700729 0.908988
loop_
_geom_bond_atom_site_label_1
_geom_bond_atom_site_label_2
_geom_bond_site_symmetry_1
_geom_bond_site_symmetry_2
O1 C3 1_555 1_555
O10 C3 1_555 1_555
C3 C12 1_555 1_555
C37 C12 1_555 1_555
H17 C37 1_555 1_555
Ho5 O1 1_555 1_555
Ho9 O1 1_555 1_555
O10 Ho5 1_555 1_555
O4 C4 1_555 1_555
O11 C4 1_555 1_555
C2 C4 1_555 1_555
C8 C2 1_555 1_555
H5 C8 1_555 1_555
C27 C8 1_555 1_555
H11 C27 1_555 1_555
C44 C2 1_555 1_555
H24 C44 1_555 1_555
Ho7 O4 1_555 1_555
Ho14 O4 1_555 1_555
O11 Ho14 1_555 1_555
C44 C47 1_555 1_555
Ho5 O16 1_555 1_555
Ho9 O5 1_555 1_555
Ho3 O14 1_555 1_555
O5 C13 1_555 1_555
O12 C13 1_555 1_555
O13 C16 1_555 1_555
O15 C16 1_555 1_555
O16 C58 1_555 1_555
O17 Ho3 1_555 1_555
N1 C15 1_555 1_555
O18 Ho3 1_555 1_555
O19 Ho5 1_555 1_555
N3 C20 1_555 1_555
O20 Ho9 1_555 1_555
C13 C23 1_555 1_555
C16 C17 1_555 1_555
C17 C35 1_555 1_555
C18 N1 1_555 1_555
C19 C36 1_555 1_555
C20 C54 1_555 1_555
C21 N3 1_555 1_555
C22 N1 1_555 1_555
C23 C49 1_555 1_555
C25 C21 1_555 1_555
H8 C25 1_555 1_555
C26 O19 1_555 1_555
O21 Ho9 1_555 1_555
C28 C26 1_555 1_555
C30 H13 1_555 1_555
C31 N3 1_555 1_555
C34 C22 1_555 1_555
H14 C34 1_555 1_555
C35 H15 1_555 1_555
C36 C34 1_555 1_555
H16 C36 1_555 1_555
H18 C38 1_555 1_555
C39 C22 1_555 1_555
H19 C39 1_555 1_555
C41 C18 1_555 1_555
H21 C41 1_555 1_555
C43 C17 1_555 1_555
H23 C43 1_555 1_555
C45 C31 1_555 1_555
H25 C45 1_555 1_555
H28 C48 1_555 1_555
C49 H29 1_555 1_555
C50 C28 1_555 1_555
H30 C50 1_555 1_555
C51 C18 1_555 1_555
H31 C51 1_555 1_555
C54 C35 1_555 1_555
H34 C54 1_555 1_555
C55 C19 1_555 1_555
H35 C55 1_555 1_555
C58 O17 1_555 1_555
C60 C20 1_555 1_555
H39 C60 1_555 1_555
C61 C31 1_555 1_555
H40 C61 1_555 1_555
C62 C28 1_555 1_555
H41 C62 1_555 1_555
Ho11 O15 1_555 1_555
Ho14 O13 1_555 1_555
Ho15 O5 1_555 1_555
O23 Ho5 1_555 1_555
O24 Ho5 1_555 1_555
O25 Ho5 1_555 1_555
O26 Ho3 1_555 1_555
O27 Ho9 1_555 1_555
O28 Ho5 1_555 1_555
O29 Ho5 1_555 1_555
O30 Ho9 1_555 1_555
O32 Ho3 1_555 1_555
O33 Ho3 1_555 1_555
O34 Ho3 1_555 1_555
O35 Ho9 1_555 1_555
Ho9 O23 1_555 1_555
Ho3 O24 1_555 1_555
Ho3 O25 1_555 1_555
O12 Ho15 1_555 1_555
O20 C26 1_555 1_555
C19 C58 1_555 1_555
C21 C48 1_555 1_555
C25 C38 1_555 1_555
C30 C41 1_555 1_555
C39 C55 1_555 1_555
C43 C60 1_555 1_555
C45 C50 1_555 1_555
C61 C62 1_555 1_555
O6 C9 1_555 1_555
O9 C9 1_555 1_555
C6 C9 1_555 1_555
C29 C6 1_555 1_555
H12 C29 1_555 1_555
C52 C6 1_555 1_555
H32 C52 1_555 1_555
Ho11 O6 1_555 1_555
O9 Ho11 1_555 1_555
O23 C1 1_555 1_555
O3 C5 1_555 1_555
O28 C1 1_555 1_555
O8 C5 1_555 1_555
N2 C24 1_555 1_555
C1 C7 1_555 1_555
C5 C10 1_555 1_555
C7 C14 1_555 1_555
C10 C11 1_555 1_555
C11 H6 1_555 1_555
C14 H7 1_555 1_555
C24 C46 1_555 1_555
C32 N2 1_555 1_555
C33 N2 1_555 1_555
C40 C14 1_555 1_555
H20 C40 1_555 1_555
C42 C7 1_555 1_555
H22 C42 1_555 1_555
H26 C46 1_555 1_555
H33 C53 1_555 1_555
C56 C24 1_555 1_555
H36 C56 1_555 1_555
C57 C33 1_555 1_555
H37 C57 1_555 1_555
C59 C32 1_555 1_555
H38 C59 1_555 1_555
C63 C33 1_555 1_555
H42 C63 1_555 1_555
Ho7 O3 1_555 1_555
Ho14 O3 1_555 1_555
O8 Ho7 1_555 1_555
C32 C40 1_555 1_555
C42 C59 1_555 1_555
C53 C63 1_555 1_555
O2 C1_2 1_555 1_555
O7 C1_2 1_555 1_555
N2_2 C24_2 1_555 1_555
C1_2 C7_2 1_555 1_555
C7_2 C14_2 1_555 1_555
C14_2 H7_2 1_555 1_555
C24_2 C46_2 1_555 1_555
H12_2 C29_2 1_555 1_555
C32_2 N2_2 1_555 1_555
C33_2 N2_2 1_555 1_555
C40_2 C14_2 1_555 1_555
H20_2 C40_2 1_555 1_555
C42_2 C7_2 1_555 1_555
H22_2 C42_2 1_555 1_555
C46_2 C29_2 1_555 1_555
H26_2 C46_2 1_555 1_555
C57_2 C33_2 1_555 1_555
H37_2 C57_2 1_555 1_555
C59_2 C32_2 1_555 1_555
H38_2 C59_2 1_555 1_555
Ho7 O2 1_555 1_555
Ho8 O2 1_555 1_555
O7 Ho7 1_555 1_555
C32_2 C40_2 1_555 1_555
C42_2 C59_2 1_555 1_555
O6_2 C9_2 1_555 1_555
O9_2 C9_2 1_555 1_555
C6_2 C9_2 1_555 1_555
C52_2 C6_2 1_555 1_555
H32_2 C52_2 1_555 1_555
H33_2 C53_2 1_555 1_555
H36_2 C56_2 1_555 1_555
H42_2 C63_2 1_555 1_555
Ho10 O6_2 1_555 1_555
O9_2 Ho10 1_555 1_555
C52_2 C56_2 1_555 1_555
C53_2 C63_2 1_555 1_555
O24 C5_2 1_555 1_555
O29 C5_2 1_555 1_555
C5_2 C10_2 1_555 1_555
C10_2 C11_2 1_555 1_555
C11_2 H6_2 1_555 1_555
Ho7 O16_2 1_555 1_555
Ho14 O14_2 1_555 1_555
O25 C4_2 1_555 1_555
O32 C4_2 1_555 1_555
O16_2 C58_2 1_555 1_555
O17_2 Ho14 1_555 1_555
N1_2 C15_2 1_555 1_555
O18_2 Ho14 1_555 1_555
O19_2 Ho7 1_555 1_555
O20_2 Ho8 1_555 1_555
C2_2 C4_2 1_555 1_555
C8_2 C2_2 1_555 1_555
H5_2 C8_2 1_555 1_555
C15_2 C27_2 1_555 1_555
C18_2 N1_2 1_555 1_555
C19_2 C36_2 1_555 1_555
C22_2 N1_2 1_555 1_555
C26_2 O19_2 1_555 1_555
O21_2 Ho8 1_555 1_555
C27_2 C8_2 1_555 1_555
H11_2 C27_2 1_555 1_555
C28_2 C26_2 1_555 1_555
C30_2 H13_2 1_555 1_555
C34_2 C22_2 1_555 1_555
H14_2 C34_2 1_555 1_555
C36_2 C34_2 1_555 1_555
H16_2 C36_2 1_555 1_555
C39_2 C22_2 1_555 1_555
H19_2 C39_2 1_555 1_555
C41_2 C18_2 1_555 1_555
H21_2 C41_2 1_555 1_555
C44_2 C2_2 1_555 1_555
H24_2 C44_2 1_555 1_555
C47_2 C15_2 1_555 1_555
H27_2 C47_2 1_555 1_555
C49_2 H29_2 1_555 1_555
C50_2 C28_2 1_555 1_555
H30_2 C50_2 1_555 1_555
C51_2 C18_2 1_555 1_555
H31_2 C51_2 1_555 1_555
C55_2 C19_2 1_555 1_555
H35_2 C55_2 1_555 1_555
C58_2 O17_2 1_555 1_555
C62_2 C28_2 1_555 1_555
H41_2 C62_2 1_555 1_555
O22 Ho7 1_555 1_555
O26_2 Ho14 1_555 1_555
O27_2 Ho8 1_555 1_555
O30_2 Ho8 1_555 1_555
O31 Ho7 1_555 1_555
O33_2 Ho14 1_555 1_555
O35_2 Ho8 1_555 1_555
Ho8 O22 1_555 1_555
O20_2 C26_2 1_555 1_555
C19_2 C58_2 1_555 1_555
C30_2 C41_2 1_555 1_555
C39_2 C55_2 1_555 1_555
C44_2 C47_2 1_555 1_555
C61_2 C62_2 1_555 1_555
O5_2 C13_2 1_555 1_555
O12_2 C13_2 1_555 1_555
C13_2 C23_2 1_555 1_555
Ho15_2 O5_2 1_555 1_555
O12_2 Ho15_2 1_555 1_555
O34 C16_2 1_555 1_555
N3_2 C20_2 1_555 1_555
C16_2 C17_2 1_555 1_555
C17_2 C35_2 1_555 1_555
C20_2 C54_2 1_555 1_555
C21_2 N3_2 1_555 1_555
C25_2 C21_2 1_555 1_555
H8_2 C25_2 1_555 1_555
C31_2 N3_2 1_555 1_555
C35_2 H15_2 1_555 1_555
H18_2 C38_2 1_555 1_555
C43_2 C17_2 1_555 1_555
H23_2 C43_2 1_555 1_555
C45_2 C31_2 1_555 1_555
H25_2 C45_2 1_555 1_555
H28_2 C48_2 1_555 1_555
C54_2 C35_2 1_555 1_555
H34_2 C54_2 1_555 1_555
C60_2 C20_2 1_555 1_555
H39_2 C60_2 1_555 1_555
C21_2 C48_2 1_555 1_555
C25_2 C38_2 1_555 1_555
C43_2 C60_2 1_555 1_555
Ho10 O15_2 1_555 1_555
O22 C3_2 1_555 1_555
O31 C3_2 1_555 1_555
C3_2 C12_2 1_555 1_555
C37_2 C12_2 1_555 1_555
H17_2 C37_2 1_555 1_555
O2_2 C1_3 1_555 1_555
O3_2 C5_3 1_555 1_555
O7_2 C1_3 1_555 1_555
O8_2 C5_3 1_555 1_555
N2_3 C24_3 1_555 1_555
C1_3 C7_3 1_555 1_555
C5_3 C10_3 1_555 1_555
C7_3 C14_3 1_555 1_555
C10_3 C11_3 1_555 1_555
C11_3 H6_3 1_555 1_555
C14_3 H7_3 1_555 1_555
C24_3 C46_3 1_555 1_555
C32_3 N2_3 1_555 1_555
C33_3 N2_3 1_555 1_555
C40_3 C14_3 1_555 1_555
H20_3 C40_3 1_555 1_555
C42_3 C7_3 1_555 1_555
H22_3 C42_3 1_555 1_555
H26_3 C46_3 1_555 1_555
H33_3 C53_3 1_555 1_555
C56_3 C24_3 1_555 1_555
H36_3 C56_3 1_555 1_555
C57_3 C33_3 1_555 1_555
H37_3 C57_3 1_555 1_555
C59_3 C32_3 1_555 1_555
H38_3 C59_3 1_555 1_555
C63_3 C33_3 1_555 1_555
H42_3 C63_3 1_555 1_555
Ho4 O2_2 1_555 1_555
Ho6 O3_2 1_555 1_555
Ho11 O2_2 1_555 1_555
Ho15 O3_2 1_555 1_555
O7_2 Ho4 1_555 1_555
O8_2 Ho6 1_555 1_555
C32_3 C40_3 1_555 1_555
C42_3 C59_3 1_555 1_555
C53_3 C63_3 1_555 1_555
O27 C9_3 1_555 1_555
O30 C9_3 1_555 1_555
C6_3 C9_3 1_555 1_555
C29_3 C6_3 1_555 1_555
H12_3 C29_3 1_555 1_555
C52_3 C6_3 1_555 1_555
H32_3 C52_3 1_555 1_555
Ho4 O16_3 1_555 1_555
Ho11 O26_2 1_555 1_555
Ho15_2 O14_3 1_555 1_555
O26_2 C13_3 1_555 1_555
O33_2 C13_3 1_555 1_555
O13_2 C16_3 1_555 1_555
O35 C16_3 1_555 1_555
O16_3 C58_3 1_555 1_555
O17_3 Ho15_2 1_555 1_555
N1_3 C15_3 1_555 1_555
O18_3 Ho15_2 1_555 1_555
O19_3 Ho4 1_555 1_555
N3_3 C20_3 1_555 1_555
O20_3 Ho11 1_555 1_555
C13_3 C23_3 1_555 1_555
C16_3 C17_3 1_555 1_555
C17_3 C35_3 1_555 1_555
C18_3 N1_3 1_555 1_555
C19_3 C36_3 1_555 1_555
C20_3 C54_3 1_555 1_555
C21_3 N3_3 1_555 1_555
C22_3 N1_3 1_555 1_555
C23_3 C49_3 1_555 1_555
C25_3 C21_3 1_555 1_555
H8_3 C25_3 1_555 1_555
C26_3 O19_3 1_555 1_555
O21_3 Ho11 1_555 1_555
C28_3 C26_3 1_555 1_555
C30_3 H13_3 1_555 1_555
C31_3 N3_3 1_555 1_555
C34_3 C22_3 1_555 1_555
H14_3 C34_3 1_555 1_555
C35_3 H15_3 1_555 1_555
C36_3 C34_3 1_555 1_555
H16_3 C36_3 1_555 1_555
H18_3 C38_3 1_555 1_555
C39_3 C22_3 1_555 1_555
H19_3 C39_3 1_555 1_555
C41_3 C18_3 1_555 1_555
H21_3 C41_3 1_555 1_555
C43_3 C17_3 1_555 1_555
H23_3 C43_3 1_555 1_555
C45_3 C31_3 1_555 1_555
H25_3 C45_3 1_555 1_555
H28_3 C48_3 1_555 1_555
C49_3 H29_3 1_555 1_555
C50_3 C28_3 1_555 1_555
H30_3 C50_3 1_555 1_555
C51_3 C18_3 1_555 1_555
H31_3 C51_3 1_555 1_555
C54_3 C35_3 1_555 1_555
H34_3 C54_3 1_555 1_555
C55_3 C19_3 1_555 1_555
H35_3 C55_3 1_555 1_555
C58_3 O17_3 1_555 1_555
C60_3 C20_3 1_555 1_555
H39_3 C60_3 1_555 1_555
C61_3 C31_3 1_555 1_555
H40_3 C61_3 1_555 1_555
C62_3 C28_3 1_555 1_555
H41_3 C62_3 1_555 1_555
Ho15 O13_2 1_555 1_555
O22_2 Ho4 1_555 1_555
O24_2 Ho4 1_555 1_555
O25_2 Ho4 1_555 1_555
O29_2 Ho4 1_555 1_555
O31_2 Ho4 1_555 1_555
O32_2 Ho15_2 1_555 1_555
O34_2 Ho15_2 1_555 1_555
Ho11 O22_2 1_555 1_555
Ho15_2 O24_2 1_555 1_555
Ho15_2 O25_2 1_555 1_555
O20_3 C26_3 1_555 1_555
C19_3 C58_3 1_555 1_555
C21_3 C48_3 1_555 1_555
C25_3 C38_3 1_555 1_555
C30_3 C41_3 1_555 1_555
C39_3 C55_3 1_555 1_555
C43_3 C60_3 1_555 1_555
C45_3 C50_3 1_555 1_555
C61_3 C62_3 1_555 1_555
O4_2 C4_3 1_555 1_555
O11_2 C4_3 1_555 1_555
C2_3 C4_3 1_555 1_555
C8_3 C2_3 1_555 1_555
H5_3 C8_3 1_555 1_555
C27_3 C8_3 1_555 1_555
H11_3 C27_3 1_555 1_555
C44_3 C2_3 1_555 1_555
H24_3 C44_3 1_555 1_555
Ho6 O4_2 1_555 1_555
Ho15 O4_2 1_555 1_555
O11_2 Ho15 1_555 1_555
C44_3 C47_3 1_555 1_555
O22_2 C3_3 1_555 1_555
O31_2 C3_3 1_555 1_555
C3_3 C12_3 1_555 1_555
C37_3 C12_3 1_555 1_555
H17_3 C37_3 1_555 1_555
O1_2 C3_4 1_555 1_555
O10_2 C3_4 1_555 1_555
C3_4 C12_4 1_555 1_555
C37_4 C12_4 1_555 1_555
H17_4 C37_4 1_555 1_555
Ho6 O1_2 1_555 1_555
Ho10 O1_2 1_555 1_555
O10_2 Ho6 1_555 1_555
O34_2 C16_4 1_555 1_555
N3_4 C20_4 1_555 1_555
C16_4 C17_4 1_555 1_555
C17_4 C35_4 1_555 1_555
C20_4 C54_4 1_555 1_555
C21_4 N3_4 1_555 1_555
C25_4 C21_4 1_555 1_555
H8_4 C25_4 1_555 1_555
C31_4 N3_4 1_555 1_555
C35_4 H15_4 1_555 1_555
H18_4 C38_4 1_555 1_555
C43_4 C17_4 1_555 1_555
H23_4 C43_4 1_555 1_555
C45_4 C31_4 1_555 1_555
H25_4 C45_4 1_555 1_555
H28_4 C48_4 1_555 1_555
C54_4 C35_4 1_555 1_555
H34_4 C54_4 1_555 1_555
C60_4 C20_4 1_555 1_555
H39_4 C60_4 1_555 1_555
C21_4 C48_4 1_555 1_555
C25_4 C38_4 1_555 1_555
C43_4 C60_4 1_555 1_555
O26 C13_4 1_555 1_555
O33 C13_4 1_555 1_555
C13_4 C23_4 1_555 1_555
Ho6 O16_4 1_555 1_555
Ho15 O14_4 1_555 1_555
O25_2 C4_4 1_555 1_555
O32_2 C4_4 1_555 1_555
O16_4 C58_4 1_555 1_555
O17_4 Ho15 1_555 1_555
N1_4 C15_4 1_555 1_555
O18_4 Ho15 1_555 1_555
O19_4 Ho6 1_555 1_555
O20_4 Ho10 1_555 1_555
C2_4 C4_4 1_555 1_555
C8_4 C2_4 1_555 1_555
H5_4 C8_4 1_555 1_555
C15_4 C27_4 1_555 1_555
C18_4 N1_4 1_555 1_555
C19_4 C36_4 1_555 1_555
C22_4 N1_4 1_555 1_555
C26_4 O19_4 1_555 1_555
O21_4 Ho10 1_555 1_555
C27_4 C8_4 1_555 1_555
H11_4 C27_4 1_555 1_555
C28_4 C26_4 1_555 1_555
C30_4 H13_4 1_555 1_555
C34_4 C22_4 1_555 1_555
H14_4 C34_4 1_555 1_555
C36_4 C34_4 1_555 1_555
H16_4 C36_4 1_555 1_555
C39_4 C22_4 1_555 1_555
H19_4 C39_4 1_555 1_555
C41_4 C18_4 1_555 1_555
H21_4 C41_4 1_555 1_555
C44_4 C2_4 1_555 1_555
H24_4 C44_4 1_555 1_555
C47_4 C15_4 1_555 1_555
H27_4 C47_4 1_555 1_555
C49_4 H29_4 1_555 1_555
C50_4 C28_4 1_555 1_555
H30_4 C50_4 1_555 1_555
C51_4 C18_4 1_555 1_555
H31_4 C51_4 1_555 1_555
C55_4 C19_4 1_555 1_555
H35_4 C55_4 1_555 1_555
C58_4 O17_4 1_555 1_555
C62_4 C28_4 1_555 1_555
H41_4 C62_4 1_555 1_555
O23_2 Ho6 1_555 1_555
O28_2 Ho6 1_555 1_555
Ho10 O23_2 1_555 1_555
O20_4 C26_4 1_555 1_555
C19_4 C58_4 1_555 1_555
C30_4 C41_4 1_555 1_555
C39_4 C55_4 1_555 1_555
C44_4 C47_4 1_555 1_555
C61_4 C62_4 1_555 1_555
O24_2 C5_4 1_555 1_555
O29_2 C5_4 1_555 1_555
C5_4 C10_4 1_555 1_555
C10_4 C11_4 1_555 1_555
C11_4 H6_4 1_555 1_555
O27_2 C9_4 1_555 1_555
O30_2 C9_4 1_555 1_555
C6_4 C9_4 1_555 1_555
C52_4 C6_4 1_555 1_555
H32_4 C52_4 1_555 1_555
H33_4 C53_4 1_555 1_555
H36_4 C56_4 1_555 1_555
H42_4 C63_4 1_555 1_555
C52_4 C56_4 1_555 1_555
C53_4 C63_4 1_555 1_555
O23_2 C1_4 1_555 1_555
O28_2 C1_4 1_555 1_555
N2_4 C24_4 1_555 1_555
C1_4 C7_4 1_555 1_555
C7_4 C14_4 1_555 1_555
C14_4 H7_4 1_555 1_555
C24_4 C46_4 1_555 1_555
H12_4 C29_4 1_555 1_555
C32_4 N2_4 1_555 1_555
C33_4 N2_4 1_555 1_555
C40_4 C14_4 1_555 1_555
H20_4 C40_4 1_555 1_555
C42_4 C7_4 1_555 1_555
H22_4 C42_4 1_555 1_555
C46_4 C29_4 1_555 1_555
H26_4 C46_4 1_555 1_555
C57_4 C33_4 1_555 1_555
H37_4 C57_4 1_555 1_555
C59_4 C32_4 1_555 1_555
H38_4 C59_4 1_555 1_555
C32_4 C40_4 1_555 1_555
C42_4 C59_4 1_555 1_555

#END
