
###############################################################################
#
# This file contains modified crystal structure data generated from the
# MOF subset of the Cambridge Structural Database (CSD) v542 
# hosted by the Cambridge Crystallographic Data Centre (CCDC).
#
# This work is licensed under the Creative Commons
# Attribution-NonCommercial-ShareAlike 4.0 International License.
# To view a copy of this license, visit
# http://creativecommons.org/licenses/by-nc-sa/4.0/
# or send a letter to
# Creative Commons, PO Box 1866, Mountain View, CA 94042, USA.
#
# CIF created using the CSD Python API on 22 February 2021
# The structure has been converted into the P1 space group
# The structure has a 3D framework
# The original CSD entry PINPAG is in the triclinic crystal system
# The framework has been calculated to contain at least 10.0% void space
# The void calculation uses a probe of radius 1.32A, grid spacing 0.4
#
###############################################################################

data_PINPAG
_chemical_formula_moiety         '(C46 H26 N6 Ni2 O8)n'
_symmetry_cell_setting           triclinic
_symmetry_space_group_name_H-M   'P 1'
_symmetry_Int_Tables_number      1
_space_group_name_Hall           'P 1'
loop_
_symmetry_equiv_pos_site_id
_symmetry_equiv_pos_as_xyz
1 x,y,z
_cell_length_a                   10.1188(7)
_cell_length_b                   10.9420(11)
_cell_length_c                   11.7024(10)
_cell_angle_alpha                63.853(9)
_cell_angle_beta                 82.358(6)
_cell_angle_gamma                72.588(7)
_cell_volume                     1109.8
loop_
_atom_site_label
_atom_site_type_symbol
_atom_site_fract_x
_atom_site_fract_y
_atom_site_fract_z
C13 C 0.0036(3) 0.1100(3) 0.0930(3)
H6 H 0.084421 0.081064 0.138508
Ni1 Ni 0.37982(3) 0.25166(4) 0.83163(4)
O1 O 0.2381(2) 0.1860(2) 0.9585(2)
O3 O 0.1453(2) 0.2398(3) 0.7758(2)
C2 C 0.0063(3) 0.1782(3) 0.9620(3)
C8 C 0.1378(3) 0.2028(4) 0.8928(3)
O5 O 0.5296(2) 0.2098(2) 0.9450(2)
N4 N 0.2888(3) 0.4611(3) 0.7293(3)
N5 N 0.4686(2) 0.1379(3) 0.7316(3)
H3 H 0.072141 0.873104 0.325436
C10 C 0.3128(3) 0.5344(3) 0.6080(3)
H4 H 0.396358 0.501331 0.573437
C14 C 0.0982(3) 0.7115(3) 0.5789(3)
C15 C 0.2216(3) 0.6571(3) 0.5296(3)
H7 H 0.242858 0.703137 0.444074
C22 C 0.1702(4) 0.5187(4) 0.7788(4)
H12 H 0.152132 0.471967 0.865004
C23 C 0.0768(4) 0.6420(4) 0.7075(4)
C4 C 0.6571(3) 0.0295(3) 0.5791(3)
C7 C 0.7630(3) 0.1280(3) 0.0883(3)
H2 H 0.681385 0.110166 0.130127
C11 C 0.8826(3) 0.0833(3) 0.1586(3)
C12 C 0.7668(3) 0.0497(3) 0.3682(3)
H5 H 0.689217 0.120977 0.326128
C16 C 0.4475(3) 0.1888(4) 0.6068(3)
H8 H 0.367761 0.260886 0.571425
C17 C 0.8811(3) 0.0102(3) 0.2991(3)
C18 C 0.5389(3) 0.1393(3) 0.5273(3)
H9 H 0.521152 0.179039 0.440530
C21 C 0.5786(3) 0.0257(4) 0.7820(4)
O4 O 0.6354(2) 0.3150(3) 0.7635(2)
C1 C 0.7640(3) 0.1988(3) 0.9563(3)
C5 C 0.8864(3) 0.2240(3) 0.8936(3)
H1 H 0.887567 0.271715 0.805332
C19 C 0.6351(3) 0.2461(4) 0.8808(3)
N2 N 0.8774(2) 0.8764(3) 0.5655(3)
C3 C 0.9865(3) 0.8368(3) 0.4989(3)
C6 C 0.7694(3) 0.9819(3) 0.5001(3)
C9 C 0.9931(3) 0.9017(3) 0.3678(3)
C20 C 0.6717(3) 0.9693(4) 0.7107(3)
H10 H 0.745140 0.890573 0.750067
H11 H 0.591664 0.984620 0.869592
H13 H 0.998654 0.679002 0.745886
N2_2 N 0.1226(2) 0.1236(3) 0.4345(3)
C3_2 C 0.0135(3) 0.1632(3) 0.5011(3)
C6_2 C 0.2306(3) 0.0181(3) 0.4999(3)
C9_2 C 0.0069(3) 0.0983(3) 0.6322(3)
C20_2 C 0.3283(3) 0.0307(4) 0.2893(3)
H10_2 H 0.254860 0.109427 0.249933
H11_2 H 0.408336 0.015380 0.130408
H13_2 H 0.001346 0.320998 0.254114
O2 O 0.4704(2) 0.7902(2) 0.0550(2)
O4_2 O 0.3646(2) 0.6850(3) 0.2365(2)
C1_2 C 0.2360(3) 0.8012(3) 0.0437(3)
C5_2 C 0.1136(3) 0.7760(3) 0.1064(3)
H1_2 H 0.112433 0.728285 0.194668
C19_2 C 0.3649(3) 0.7539(4) 0.1192(3)
Ni2 Ni 0.62018(3) 0.74834(4) 0.16837(4)
N3 N 0.5314(2) 0.8621(3) 0.2684(3)
C4_2 C 0.3429(3) 0.9705(3) 0.4209(3)
C7_2 C 0.2370(3) 0.8720(3) 0.9117(3)
H2_2 H 0.318615 0.889834 0.869873
C11_2 C 0.1174(3) 0.9167(3) 0.8414(3)
C12_2 C 0.2332(3) 0.9503(3) 0.6318(3)
H5_2 H 0.310783 0.879023 0.673872
C16_2 C 0.5525(3) 0.8112(4) 0.3932(3)
H8_2 H 0.632239 0.739114 0.428575
C17_2 C 0.1189(3) 0.9898(3) 0.7009(3)
C18_2 C 0.4611(3) 0.8607(3) 0.4727(3)
H9_2 H 0.478848 0.820961 0.559470
C21_2 C 0.4214(3) 0.9743(4) 0.2180(4)
N1 N 0.7112(3) 0.5389(3) 0.2707(3)
H3_2 H 0.927859 0.126896 0.674564
C10_2 C 0.6872(3) 0.4656(3) 0.3920(3)
H4_2 H 0.603642 0.498669 0.426563
C14_2 C 0.9018(3) 0.2885(3) 0.4211(3)
C15_2 C 0.7784(3) 0.3429(3) 0.4704(3)
H7_2 H 0.757142 0.296863 0.555926
C22_2 C 0.8298(4) 0.4813(4) 0.2212(4)
H12_2 H 0.847868 0.528033 0.134996
C23_2 C 0.9232(4) 0.3580(4) 0.2925(4)
O1_2 O 0.7619(2) 0.8140(2) 0.0415(2)
O3_2 O 0.8547(2) 0.7602(3) 0.2242(2)
C2_2 C 0.9937(3) 0.8218(3) 0.0380(3)
C8_2 C 0.8622(3) 0.7972(4) 0.1072(3)
C13_2 C 0.9964(3) 0.8900(3) 0.9070(3)
H6_2 H 0.915579 0.918936 0.861492
loop_
_geom_bond_atom_site_label_1
_geom_bond_atom_site_label_2
_geom_bond_site_symmetry_1
_geom_bond_site_symmetry_2
H6 C13 1_555 1_555
Ni1 O1 1_555 1_555
O1 C8 1_555 1_555
O3 Ni1 1_555 1_555
C8 O3 1_555 1_555
O5 Ni1 1_555 1_555
N4 Ni1 1_555 1_555
N5 Ni1 1_555 1_555
C2 C8 1_555 1_555
N4 C10 1_555 1_555
C10 H4 1_555 1_555
C15 C10 1_555 1_555
H7 C15 1_555 1_555
C22 N4 1_555 1_555
H12 C22 1_555 1_555
C23 C14 1_555 1_555
C14 C15 1_555 1_555
C22 C23 1_555 1_555
N5 C16 1_555 1_555
H2 C7 1_555 1_555
C11 C7 1_555 1_555
H5 C12 1_555 1_555
C16 H8 1_555 1_555
C18 C4 1_555 1_555
H9 C18 1_555 1_555
C21 N5 1_555 1_555
C11 C17 1_555 1_555
C12 C17 1_555 1_555
C16 C18 1_555 1_555
O5 C19 1_555 1_555
O4 C19 1_555 1_555
C1 C5 1_555 1_555
C5 H1 1_555 1_555
C19 C1 1_555 1_555
N2 C3 1_555 1_555
C3 C9 1_555 1_555
C6 N2 1_555 1_555
H10 C20 1_555 1_555
N2_2 C3_2 1_555 1_555
C3_2 C9_2 1_555 1_555
C6_2 N2_2 1_555 1_555
H10_2 C20_2 1_555 1_555
O2 C19_2 1_555 1_555
O4_2 C19_2 1_555 1_555
C1_2 C5_2 1_555 1_555
C5_2 H1_2 1_555 1_555
C19_2 C1_2 1_555 1_555
Ni2 O2 1_555 1_555
N3 C16_2 1_555 1_555
H2_2 C7_2 1_555 1_555
C11_2 C7_2 1_555 1_555
H5_2 C12_2 1_555 1_555
C16_2 H8_2 1_555 1_555
C18_2 C4_2 1_555 1_555
H9_2 C18_2 1_555 1_555
C21_2 N3 1_555 1_555
Ni2 N3 1_555 1_555
C11_2 C17_2 1_555 1_555
C12_2 C17_2 1_555 1_555
C16_2 C18_2 1_555 1_555
N1 C10_2 1_555 1_555
C10_2 H4_2 1_555 1_555
C15_2 C10_2 1_555 1_555
H7_2 C15_2 1_555 1_555
C22_2 N1 1_555 1_555
H12_2 C22_2 1_555 1_555
C23_2 C14_2 1_555 1_555
Ni2 N1 1_555 1_555
C14_2 C15_2 1_555 1_555
C22_2 C23_2 1_555 1_555
Ni2 O1_2 1_555 1_555
O1_2 C8_2 1_555 1_555
O3_2 Ni2 1_555 1_555
C8_2 O3_2 1_555 1_555
C2_2 C8_2 1_555 1_555
H6_2 C13_2 1_555 1_555

#END
