
###############################################################################
#
# This file contains modified crystal structure data generated from the
# MOF subset of the Cambridge Structural Database (CSD) v542 
# hosted by the Cambridge Crystallographic Data Centre (CCDC).
#
# This work is licensed under the Creative Commons
# Attribution-NonCommercial-ShareAlike 4.0 International License.
# To view a copy of this license, visit
# http://creativecommons.org/licenses/by-nc-sa/4.0/
# or send a letter to
# Creative Commons, PO Box 1866, Mountain View, CA 94042, USA.
#
# CIF created using the CSD Python API on 22 February 2021
# The structure has been converted into the P1 space group
# The structure has a 3D framework
# The original CSD entry POJGIH is in the monoclinic crystal system
# The framework has been calculated to contain at least 10.0% void space
# The void calculation uses a probe of radius 1.32A, grid spacing 0.4
#
###############################################################################

data_POJGIH
_chemical_formula_moiety         '(C168 H120 Gd8 O80 S12)n'
_symmetry_cell_setting           triclinic
_symmetry_space_group_name_H-M   'P 1'
_symmetry_Int_Tables_number      1
_space_group_name_Hall           'P 1'
loop_
_symmetry_equiv_pos_site_id
_symmetry_equiv_pos_as_xyz
1 x,y,z
_cell_length_a                   18.3268(3)
_cell_length_b                   21.1896(4)
_cell_length_c                   16.0653(3)
_cell_angle_alpha                90
_cell_angle_beta                 110.927(2)
_cell_angle_gamma                90
_cell_volume                     5827.23
loop_
_atom_site_label
_atom_site_type_symbol
_atom_site_fract_x
_atom_site_fract_y
_atom_site_fract_z
Gd6 Gd 0.07832(2) 0.02620(2) 0.94993(2)
S3 S 0.51425(9) 0.40737(7) 0.00420(9)
O15 O 0.6811(2) 0.11927(18) 0.0608(3)
O20 O 0.5737(3) 0.44263(19) 0.0708(2)
O21 O 0.4345(2) 0.40785(19) 0.0015(3)
C12 C 0.6136(3) 0.1359(3) 0.0147(4)
C20 C 0.5886(3) 0.2032(3) 0.0147(4)
C28 C 0.5446(3) 0.3274(3) 0.0126(4)
C35 C 0.6435(3) 0.2486(3) 0.0559(4)
H23 H 0.695365 0.236968 0.084921
C36 C 0.6220(3) 0.3114(3) 0.0542(4)
H24 H 0.659205 0.342198 0.080728
Gd7 Gd 0.64116(2) 0.00518(2) 0.02845(2)
Gd1 Gd 0.07832(2) 0.47380(2) 0.44993(2)
Gd2 Gd 0.35884(2) 0.50518(2) 0.47155(2)
S1 S 0.21443(8) 0.10070(7) 0.52234(9)
O2 O 0.23930(19) 0.50267(18) 0.3637(2)
O3 O 0.05108(19) 0.00807(17) 0.0972(2)
O5 O 0.11222(19) 0.51744(17) 0.3358(2)
O6 O 0.3095(2) 0.40889(17) 0.5135(2)
O7 O 0.1793(2) 0.41075(17) 0.4649(3)
O8 O 0.59642(19) 0.45846(19) 0.6406(2)
O9 O 0.4673(2) 0.46864(18) 0.5787(2)
O10 O 0.5627(2) 0.09715(17) 0.9656(2)
O11 O 0.0217(2) 0.41385(19) 0.3177(2)
O12 O 0.17276(19) 0.01799(19) 0.1050(2)
O13 O 0.3083(2) 0.5361(2) 0.5826(3)
O14 O 0.3981(2) 0.41749(19) 0.4019(3)
O18 O 0.1458(2) 0.09334(19) 0.5460(2)
O19 O 0.2884(2) 0.07465(18) 0.5770(2)
C1 C 0.1718(3) 0.5173(2) 0.3136(3)
C3 C 0.1594(3) 0.5355(2) 0.2194(3)
C4 C 0.1466(3) 0.0330(2) 0.2383(3)
C5 C 0.5224(3) 0.4503(2) 0.7335(3)
C6 C 0.2442(3) 0.3825(3) 0.4921(3)
C7 C 0.1234(3) 0.0170(2) 0.1420(3)
C8 C 0.5291(3) 0.4600(2) 0.6437(3)
C9 C 0.0902(3) 0.0547(3) 0.2701(4)
H7 H 0.038067 0.056079 0.232639
C10 C 0.2400(3) 0.3119(2) 0.4983(3)
C11 C 0.5847(3) 0.4666(3) 0.8097(3)
H8 H 0.628856 0.485305 0.804555
C13 C 0.0860(3) 0.5326(2) 0.1535(3)
H9 H 0.043942 0.516920 0.166626
C14 C 0.2248(3) 0.0289(3) 0.2954(3)
H10 H 0.262211 0.013404 0.273986
C15 C 0.4539(3) 0.4268(3) 0.7404(4)
H11 H 0.410569 0.419165 0.689345
C16 C 0.1388(3) 0.5757(2) 0.0504(3)
C18 C 0.2231(3) 0.5567(3) 0.1995(4)
H12 H 0.272727 0.556879 0.243295
C19 C 0.1899(3) 0.0715(2) 0.4128(3)
C21 C 0.5151(3) 0.4282(2) 0.8985(3)
C23 C 0.5818(3) 0.4555(3) 0.8923(4)
H14 H 0.623757 0.465994 0.943449
C24 C 0.2265(3) 0.1829(2) 0.5107(3)
C26 C 0.0750(3) 0.5529(3) 0.0682(3)
H16 H 0.025854 0.551430 0.023593
C27 C 0.3054(3) 0.2745(3) 0.5273(4)
H17 H 0.354515 0.292869 0.542440
C29 C 0.2992(3) 0.2097(3) 0.5343(4)
H18 H 0.343831 0.184724 0.554670
C30 C 0.2467(3) 0.0479(3) 0.3830(3)
H19 H 0.298474 0.044838 0.421321
C31 C 0.2125(3) 0.5775(3) 0.1144(4)
H20 H 0.254588 0.592493 0.100698
C32 C 0.4506(3) 0.4150(3) 0.8234(4)
H21 H 0.405590 0.398364 0.828823
C33 C 0.1116(3) 0.0745(3) 0.3576(4)
H22 H 0.074178 0.089499 0.379407
C39 C 0.5112(3) 0.2209(3) 0.9742(4)
H27 H 0.473934 0.190284 0.946848
C40 C 0.1668(3) 0.2836(3) 0.4719(5)
H28 H 0.122020 0.308274 0.449534
C41 C 0.4882(3) 0.2824(3) 0.9735(4)
H29 H 0.435935 0.293662 0.947208
C42 C 0.1604(3) 0.2194(3) 0.4788(5)
H30 H 0.111354 0.200656 0.461923
Gd8 Gd 0.64116(2) 0.49482(2) 0.52845(2)
O22 O 0.0852(2) 0.58080(17) 0.4782(2)
O24 O 0.05108(19) 0.49193(17) 0.5972(2)
O25 O 0.01755(19) 0.38622(17) 0.4884(2)
O26 O 0.40358(19) 0.54154(19) 0.3594(2)
O27 O 0.4373(2) 0.59715(17) 0.5344(2)
O28 O 0.17276(19) 0.48201(19) 0.6050(2)
O29 O 0.3189(2) 0.61927(18) 0.4392(3)
S2 S 0.12401(8) 0.60783(6) 0.94411(8)
O1 O 0.0852(2) 0.91920(17) 0.9782(2)
O16 O 0.0552(2) 0.57838(18) 0.8811(2)
O17 O 0.1974(2) 0.60667(18) 0.9296(3)
C2 C 0.0424(3) 0.8772(3) 0.9915(3)
C17 C 0.0646(3) 0.8103(2) 0.9809(3)
C22 C 0.0121(3) 0.7626(3) 0.9753(4)
C25 C 0.1368(3) 0.7959(3) 0.9755(4)
H15 H 0.172554 0.827830 0.978884
C34 C 0.1009(3) 0.6875(2) 0.9570(3)
C37 C 0.0284(3) 0.7016(3) 0.9619(4)
C38 C 0.1553(3) 0.7340(3) 0.9651(4)
H26 H 0.204185 0.723873 0.963589
O4 O 0.98245(19) 0.88622(17) 0.0116(2)
H2 H 0.976346 0.392399 0.313230
Gd4 Gd 0.92168(2) 0.97380(2) 0.05007(2)
O23 O 0.94892(19) 0.50807(17) 0.4028(2)
H13 H 0.035417 0.272259 0.519106
H25 H 0.008221 0.169905 0.543987
H2_2 H 0.023654 0.892399 0.186770
S2_2 S 0.87599(8) 0.10783(6) 0.55589(8)
O1_2 O 0.9148(2) 0.41920(17) 0.5218(2)
O2_2 O 0.76070(19) 0.00267(18) 0.1363(2)
O5_2 O 0.88778(19) 0.01744(17) 0.1642(2)
O16_2 O 0.9448(2) 0.07838(18) 0.6189(2)
O17_2 O 0.8026(2) 0.10667(18) 0.5704(3)
C1_2 C 0.8282(3) 0.0173(2) 0.1864(3)
C2_2 C 0.9576(3) 0.3772(3) 0.5085(3)
C3_2 C 0.8406(3) 0.0355(2) 0.2806(3)
C13_2 C 0.9140(3) 0.0326(2) 0.3465(3)
H9_2 H 0.956058 0.016920 0.333374
C16_2 C 0.8612(3) 0.0757(2) 0.4496(3)
C17_2 C 0.9354(3) 0.3103(2) 0.5191(3)
C18_2 C 0.7769(3) 0.0567(3) 0.3005(4)
H12_2 H 0.727273 0.056879 0.256705
C22_2 C 0.9879(3) 0.2626(3) 0.5247(4)
C25_2 C 0.8632(3) 0.2959(3) 0.5245(4)
H15_2 H 0.827446 0.327830 0.521116
C26_2 C 0.9250(3) 0.0529(3) 0.4318(3)
H16_2 H 0.974146 0.051430 0.476407
C31_2 C 0.7875(3) 0.0775(3) 0.3856(4)
H20_2 H 0.745412 0.092493 0.399302
C34_2 C 0.8991(3) 0.1875(2) 0.5430(3)
C37_2 C 0.9716(3) 0.2016(3) 0.5381(4)
C38_2 C 0.8447(3) 0.2340(3) 0.5349(4)
H26_2 H 0.795815 0.223873 0.536411
Gd6_2 Gd 0.92168(2) 0.52620(2) 0.55007(2)
O22_2 O 0.9148(2) 0.08080(17) 0.0218(2)
O26_2 O 0.59642(19) 0.04154(19) 0.1406(2)
O13_2 O 0.6917(2) 0.0361(2) 0.9174(3)
O7_2 O 0.8207(2) 0.91075(17) 0.0351(3)
O11_2 O 0.9783(2) 0.91385(19) 0.1823(2)
O12_2 O 0.82724(19) 0.51799(19) 0.3950(2)
O14_2 O 0.6019(2) 0.91749(19) 0.0981(3)
C4_2 C 0.8534(3) 0.5330(2) 0.2617(3)
C6_2 C 0.7558(3) 0.8825(3) 0.0079(3)
C7_2 C 0.8766(3) 0.5170(2) 0.3580(3)
C9_2 C 0.9098(3) 0.5547(3) 0.2299(4)
H7_2 H 0.961933 0.556079 0.267361
C10_2 C 0.7600(3) 0.8119(2) 0.0017(3)
C14_2 C 0.7752(3) 0.5289(3) 0.2046(3)
H10_2 H 0.737789 0.513404 0.226014
C19_2 C 0.8101(3) 0.5715(2) 0.0872(3)
C30_2 C 0.7533(3) 0.5479(3) 0.1170(3)
H19_2 H 0.701526 0.544838 0.078679
C33_2 C 0.8884(3) 0.5745(3) 0.1424(4)
H22_2 H 0.925822 0.589499 0.120593
C40_2 C 0.8332(3) 0.7836(3) 0.0281(5)
H28_2 H 0.877980 0.808274 0.050466
C42_2 C 0.8396(3) 0.7194(3) 0.0212(5)
H30_2 H 0.888646 0.700656 0.038077
S1_2 S 0.78557(8) 0.60070(7) 0.97766(9)
S3_2 S 0.48575(9) 0.90737(7) 0.49580(9)
O6_2 O 0.6905(2) 0.90889(17) 0.9865(2)
O8_2 O 0.40358(19) 0.95846(19) 0.8594(2)
O9_2 O 0.5327(2) 0.96864(18) 0.9213(2)
O18_2 O 0.8542(2) 0.59334(19) 0.9540(2)
O19_2 O 0.7116(2) 0.57465(18) 0.9230(2)
O20_2 O 0.4263(3) 0.94263(19) 0.4292(2)
O21_2 O 0.5655(2) 0.90785(19) 0.4985(3)
C5_2 C 0.4776(3) 0.9503(2) 0.7665(3)
C8_2 C 0.4709(3) 0.9600(2) 0.8563(3)
C11_2 C 0.4153(3) 0.9666(3) 0.6903(3)
H8_2 H 0.371144 0.985305 0.695445
C12_2 C 0.3864(3) 0.6359(3) 0.4853(4)
C15_2 C 0.5461(3) 0.9268(3) 0.7596(4)
H11_2 H 0.589431 0.919165 0.810655
C20_2 C 0.4114(3) 0.7032(3) 0.4853(4)
C21_2 C 0.4849(3) 0.9282(2) 0.6015(3)
C23_2 C 0.4182(3) 0.9555(3) 0.6077(4)
H14_2 H 0.376243 0.965994 0.556551
C24_2 C 0.7735(3) 0.6829(2) 0.9893(3)
C27_2 C 0.6946(3) 0.7745(3) 0.9727(4)
H17_2 H 0.645485 0.792869 0.957560
C28_2 C 0.4554(3) 0.8274(3) 0.4874(4)
C29_2 C 0.7008(3) 0.7097(3) 0.9657(4)
H18_2 H 0.656169 0.684724 0.945330
C32_2 C 0.5494(3) 0.9150(3) 0.6766(4)
H21_2 H 0.594410 0.898364 0.671177
C35_2 C 0.3565(3) 0.7486(3) 0.4441(4)
H23_2 H 0.304635 0.736968 0.415079
C36_2 C 0.3780(3) 0.8114(3) 0.4458(4)
H24_2 H 0.340795 0.842198 0.419272
C39_2 C 0.4888(3) 0.7209(3) 0.5258(4)
H27_2 H 0.526066 0.690284 0.553152
C41_2 C 0.5118(3) 0.7824(3) 0.5265(4)
H29_2 H 0.564065 0.793662 0.552792
Gd8_2 Gd 0.35884(2) 0.99482(2) 0.97155(2)
O24_2 O 0.94892(19) 0.99193(17) 0.9028(2)
O28_2 O 0.82724(19) 0.98201(19) 0.8950(2)
O4_2 O 0.01755(19) 0.11378(17) 0.9884(2)
H2_3 H 0.023654 0.607601 0.686770
S2_3 S 0.87599(8) 0.39217(6) 0.05589(8)
O16_3 O 0.9448(2) 0.42162(18) 0.1189(2)
O17_3 O 0.8026(2) 0.39333(18) 0.0704(3)
C2_3 C 0.9576(3) 0.1228(3) 0.0085(3)
C17_3 C 0.9354(3) 0.1897(2) 0.0191(3)
C22_3 C 0.9879(3) 0.2374(3) 0.0247(4)
C25_3 C 0.8632(3) 0.2041(3) 0.0245(4)
H15_3 H 0.827446 0.172170 0.021116
C34_3 C 0.8991(3) 0.3125(2) 0.0430(3)
C37_3 C 0.9716(3) 0.2984(3) 0.0381(4)
C38_3 C 0.8447(3) 0.2660(3) 0.0349(4)
H26_3 H 0.795815 0.276127 0.036411
S1_3 S 0.78557(8) 0.89930(7) 0.47766(9)
O2_3 O 0.76070(19) 0.49733(18) 0.6363(2)
O5_3 O 0.88778(19) 0.48256(17) 0.6642(2)
O6_3 O 0.6905(2) 0.59111(17) 0.4865(2)
O7_3 O 0.8207(2) 0.58925(17) 0.5351(3)
O9_3 O 0.5327(2) 0.53136(18) 0.4213(2)
O10_2 O 0.4373(2) 0.90285(17) 0.0344(2)
O11_3 O 0.9783(2) 0.58615(19) 0.6823(2)
O13_3 O 0.6917(2) 0.4639(2) 0.4174(3)
O14_3 O 0.6019(2) 0.58251(19) 0.5981(3)
O18_3 O 0.8542(2) 0.90666(19) 0.4540(2)
O19_3 O 0.7116(2) 0.92535(18) 0.4230(2)
C1_3 C 0.8282(3) 0.4827(2) 0.6864(3)
C3_3 C 0.8406(3) 0.4645(2) 0.7806(3)
C4_3 C 0.8534(3) 0.9670(2) 0.7617(3)
C5_3 C 0.4776(3) 0.5497(2) 0.2665(3)
C6_3 C 0.7558(3) 0.6175(3) 0.5079(3)
C7_3 C 0.8766(3) 0.9830(2) 0.8580(3)
C8_3 C 0.4709(3) 0.5400(2) 0.3563(3)
C9_3 C 0.9098(3) 0.9453(3) 0.7299(4)
H7_3 H 0.961933 0.943921 0.767361
C10_3 C 0.7600(3) 0.6881(2) 0.5017(3)
C11_3 C 0.4153(3) 0.5334(3) 0.1903(3)
H8_3 H 0.371144 0.514695 0.195445
C13_3 C 0.9140(3) 0.4674(2) 0.8465(3)
H9_3 H 0.956058 0.483080 0.833374
C14_3 C 0.7752(3) 0.9711(3) 0.7046(3)
H10_3 H 0.737789 0.986596 0.726014
C15_3 C 0.5461(3) 0.5732(3) 0.2596(4)
H11_3 H 0.589431 0.580835 0.310655
C16_3 C 0.8612(3) 0.4243(2) 0.9496(3)
C18_3 C 0.7769(3) 0.4433(3) 0.8005(4)
H12_3 H 0.727273 0.443121 0.756705
C19_3 C 0.8101(3) 0.9285(2) 0.5872(3)
C21_3 C 0.4849(3) 0.5718(2) 0.1015(3)
C23_3 C 0.4182(3) 0.5445(3) 0.1077(4)
H14_3 H 0.376243 0.534006 0.056551
C24_3 C 0.7735(3) 0.8171(2) 0.4893(3)
C26_3 C 0.9250(3) 0.4471(3) 0.9318(3)
H16_3 H 0.974146 0.448570 0.976407
C27_3 C 0.6946(3) 0.7255(3) 0.4727(4)
H17_3 H 0.645485 0.707131 0.457560
C29_3 C 0.7008(3) 0.7903(3) 0.4657(4)
H18_3 H 0.656169 0.815276 0.445330
C30_3 C 0.7533(3) 0.9521(3) 0.6170(3)
H19_3 H 0.701526 0.955162 0.578679
C31_3 C 0.7875(3) 0.4225(3) 0.8856(4)
H20_3 H 0.745412 0.407507 0.899302
C32_3 C 0.5494(3) 0.5850(3) 0.1766(4)
H21_3 H 0.594410 0.601636 0.171177
C33_3 C 0.8884(3) 0.9255(3) 0.6424(4)
H22_3 H 0.925822 0.910501 0.620593
C39_3 C 0.4888(3) 0.7791(3) 0.0258(4)
H27_3 H 0.526066 0.809716 0.053152
C40_3 C 0.8332(3) 0.7164(3) 0.5281(5)
H28_3 H 0.877980 0.691726 0.550466
C41_3 C 0.5118(3) 0.7176(3) 0.0265(4)
H29_3 H 0.564065 0.706338 0.052792
C42_3 C 0.8396(3) 0.7806(3) 0.5212(5)
H30_3 H 0.888646 0.799344 0.538077
O25_2 O 0.98245(19) 0.61378(17) 0.5116(2)
O27_2 O 0.5627(2) 0.40285(17) 0.4656(2)
O29_2 O 0.6811(2) 0.38073(18) 0.5608(3)
S3_3 S 0.48575(9) 0.59263(7) 0.99580(9)
O15_2 O 0.3189(2) 0.88073(18) 0.9392(3)
O20_3 O 0.4263(3) 0.55737(19) 0.9292(2)
O21_3 O 0.5655(2) 0.59215(19) 0.9985(3)
C12_3 C 0.3864(3) 0.8641(3) 0.9853(4)
C20_3 C 0.4114(3) 0.7968(3) 0.9853(4)
C28_3 C 0.4554(3) 0.6726(3) 0.9874(4)
C35_3 C 0.3565(3) 0.7514(3) 0.9441(4)
H23_3 H 0.304635 0.763032 0.915079
C36_3 C 0.3780(3) 0.6886(3) 0.9458(4)
H24_3 H 0.340795 0.657802 0.919272
S1_4 S 0.21443(8) 0.39930(7) 0.02234(9)
S3_4 S 0.51425(9) 0.09263(7) 0.50420(9)
O6_4 O 0.3095(2) 0.09111(17) 0.0135(2)
O9_4 O 0.4673(2) 0.03136(18) 0.0787(2)
O18_4 O 0.1458(2) 0.40666(19) 0.0460(2)
O19_4 O 0.2884(2) 0.42535(18) 0.0770(2)
O20_4 O 0.5737(3) 0.05737(19) 0.5708(2)
O21_4 O 0.4345(2) 0.09215(19) 0.5015(3)
C5_4 C 0.5224(3) 0.0497(2) 0.2335(3)
C8_4 C 0.5291(3) 0.0400(2) 0.1437(3)
C11_4 C 0.5847(3) 0.0334(3) 0.3097(3)
H8_4 H 0.628856 0.014695 0.304555
C12_4 C 0.6136(3) 0.3641(3) 0.5147(4)
C15_4 C 0.4539(3) 0.0732(3) 0.2404(4)
H11_4 H 0.410569 0.080835 0.189345
C20_4 C 0.5886(3) 0.2968(3) 0.5147(4)
C21_4 C 0.5151(3) 0.0718(2) 0.3985(3)
C23_4 C 0.5818(3) 0.0445(3) 0.3923(4)
H14_4 H 0.623757 0.034006 0.443449
C24_4 C 0.2265(3) 0.3171(2) 0.0107(3)
C27_4 C 0.3054(3) 0.2255(3) 0.0273(4)
H17_4 H 0.354515 0.207131 0.042440
C28_4 C 0.5446(3) 0.1726(3) 0.5126(4)
C29_4 C 0.2992(3) 0.2903(3) 0.0343(4)
H18_4 H 0.343831 0.315276 0.054670
C32_4 C 0.4506(3) 0.0850(3) 0.3234(4)
H21_4 H 0.405590 0.101636 0.328823
C35_4 C 0.6435(3) 0.2514(3) 0.5559(4)
H23_4 H 0.695365 0.263032 0.584921
C36_4 C 0.6220(3) 0.1886(3) 0.5542(4)
H24_4 H 0.659205 0.157802 0.580728
C39_4 C 0.5112(3) 0.2791(3) 0.4742(4)
H27_4 H 0.473934 0.309716 0.446848
C41_4 C 0.4882(3) 0.2176(3) 0.4735(4)
H29_4 H 0.435935 0.206338 0.447208
O7_4 O 0.1793(2) 0.08925(17) 0.9649(3)
O11_4 O 0.0217(2) 0.08615(19) 0.8177(2)
O14_4 O 0.3981(2) 0.08251(19) 0.9019(3)
C4_4 C 0.1466(3) 0.4670(2) 0.7383(3)
C6_4 C 0.2442(3) 0.1175(3) 0.9921(3)
C7_4 C 0.1234(3) 0.4830(2) 0.6420(3)
C9_4 C 0.0902(3) 0.4453(3) 0.7701(4)
H7_4 H 0.038067 0.443921 0.732639
C10_4 C 0.2400(3) 0.1881(2) 0.9983(3)
C14_4 C 0.2248(3) 0.4711(3) 0.7954(3)
H10_4 H 0.262211 0.486596 0.773986
C19_4 C 0.1899(3) 0.4285(2) 0.9128(3)
C30_4 C 0.2467(3) 0.4521(3) 0.8830(3)
H19_4 H 0.298474 0.455162 0.921321
C33_4 C 0.1116(3) 0.4255(3) 0.8576(4)
H22_4 H 0.074178 0.410501 0.879407
C40_4 C 0.1668(3) 0.2164(3) 0.9719(5)
H28_4 H 0.122020 0.191726 0.949534
C42_4 C 0.1604(3) 0.2806(3) 0.9788(5)
H30_4 H 0.111354 0.299344 0.961923
O13_4 O 0.3083(2) 0.9639(2) 0.0826(3)
S2_4 S 0.12401(8) 0.89217(6) 0.44411(8)
O2_4 O 0.23930(19) 0.99733(18) 0.8637(2)
O5_4 O 0.11222(19) 0.98256(17) 0.8358(2)
O16_4 O 0.0552(2) 0.92162(18) 0.3811(2)
O17_4 O 0.1974(2) 0.89333(18) 0.4296(3)
C1_4 C 0.1718(3) 0.9827(2) 0.8136(3)
C2_4 C 0.0424(3) 0.6228(3) 0.4915(3)
C3_4 C 0.1594(3) 0.9645(2) 0.7194(3)
C13_4 C 0.0860(3) 0.9674(2) 0.6535(3)
H9_4 H 0.043942 0.983080 0.666626
C16_4 C 0.1388(3) 0.9243(2) 0.5504(3)
C17_4 C 0.0646(3) 0.6897(2) 0.4809(3)
C18_4 C 0.2231(3) 0.9433(3) 0.6995(4)
H12_4 H 0.272727 0.943121 0.743295
C22_4 C 0.0121(3) 0.7374(3) 0.4753(4)
C25_4 C 0.1368(3) 0.7041(3) 0.4755(4)
H15_4 H 0.172554 0.672170 0.478884
C26_4 C 0.0750(3) 0.9471(3) 0.5682(3)
H16_4 H 0.025854 0.948570 0.523593
C31_4 C 0.2125(3) 0.9225(3) 0.6144(4)
H20_4 H 0.254588 0.907507 0.600698
C34_4 C 0.1009(3) 0.8125(2) 0.4570(3)
C37_4 C 0.0284(3) 0.7984(3) 0.4619(4)
C38_4 C 0.1553(3) 0.7660(3) 0.4651(4)
H26_4 H 0.204185 0.776127 0.463589
H2_4 H 0.976346 0.107601 0.813230
H13_2 H 0.964583 0.727741 0.480894
H25_2 H 0.991779 0.830095 0.456013
H13_3 H 0.964583 0.772259 0.980894
H25_3 H 0.991779 0.669905 0.956013
H13_4 H 0.035417 0.227741 0.019106
H25_4 H 0.008221 0.330095 0.043987
loop_
_geom_bond_atom_site_label_1
_geom_bond_atom_site_label_2
_geom_bond_site_symmetry_1
_geom_bond_site_symmetry_2
S3 O20 1_555 1_555
O15 C12 1_555 1_555
O21 S3 1_555 1_555
C12 C20 1_555 1_555
C20 C35 1_555 1_555
C28 S3 1_555 1_555
C35 H23 1_555 1_555
C36 C28 1_555 1_555
H24 C36 1_555 1_555
O15 Gd7 1_555 1_555
C35 C36 1_555 1_555
Gd1 O5 1_555 1_555
Gd2 O2 1_555 1_555
S1 O18 1_555 1_555
O2 C1 1_555 1_555
O3 C7 1_555 1_555
O5 C1 1_555 1_555
O6 Gd2 1_555 1_555
O7 Gd1 1_555 1_555
O8 C8 1_555 1_555
O9 Gd2 1_555 1_555
O11 Gd1 1_555 1_555
O12 C7 1_555 1_555
O13 Gd2 1_555 1_555
O14 Gd2 1_555 1_555
O19 S1 1_555 1_555
C1 C3 1_555 1_555
C3 C13 1_555 1_555
C4 C7 1_555 1_555
C5 C8 1_555 1_555
C6 O6 1_555 1_555
C8 O9 1_555 1_555
C9 C4 1_555 1_555
H7 C9 1_555 1_555
C10 C6 1_555 1_555
C11 C5 1_555 1_555
H8 C11 1_555 1_555
C13 H9 1_555 1_555
C14 C4 1_555 1_555
H10 C14 1_555 1_555
C15 C5 1_555 1_555
H11 C15 1_555 1_555
C18 C3 1_555 1_555
H12 C18 1_555 1_555
C19 S1 1_555 1_555
C23 C11 1_555 1_555
H14 C23 1_555 1_555
C24 S1 1_555 1_555
C26 C13 1_555 1_555
H16 C26 1_555 1_555
C27 C10 1_555 1_555
H17 C27 1_555 1_555
C29 C24 1_555 1_555
H18 C29 1_555 1_555
C30 C14 1_555 1_555
H19 C30 1_555 1_555
C31 C16 1_555 1_555
H20 C31 1_555 1_555
C32 C15 1_555 1_555
H21 C32 1_555 1_555
C33 C9 1_555 1_555
H22 C33 1_555 1_555
H27 C39 1_555 1_555
C40 C10 1_555 1_555
H28 C40 1_555 1_555
H29 C41 1_555 1_555
C42 C24 1_555 1_555
H30 C42 1_555 1_555
Gd8 O8 1_555 1_555
O22 Gd1 1_555 1_555
O24 Gd1 1_555 1_555
O25 Gd1 1_555 1_555
O26 Gd2 1_555 1_555
O27 Gd2 1_555 1_555
O28 Gd1 1_555 1_555
O29 Gd2 1_555 1_555
O7 C6 1_555 1_555
C16 C26 1_555 1_555
C18 C31 1_555 1_555
C19 C30 1_555 1_555
C19 C33 1_555 1_555
C21 C23 1_555 1_555
C21 C32 1_555 1_555
C27 C29 1_555 1_555
C39 C41 1_555 1_555
C40 C42 1_555 1_555
S2 O16 1_555 1_555
O1 C2 1_555 1_555
O17 S2 1_555 1_555
C2 C17 1_555 1_555
C17 C22 1_555 1_555
C25 C17 1_555 1_555
H15 C25 1_555 1_555
C34 S2 1_555 1_555
C37 C22 1_555 1_555
C38 C25 1_555 1_555
H26 C38 1_555 1_555
C34 C37 1_555 1_555
C34 C38 1_555 1_555
Gd4 O4 1_555 1_555
Gd7 O2_2 1_555 1_555
S2_2 O16_2 1_555 1_555
O1_2 C2_2 1_555 1_555
O2_2 C1_2 1_555 1_555
O5_2 C1_2 1_555 1_555
O17_2 S2_2 1_555 1_555
C1_2 C3_2 1_555 1_555
C2_2 C17_2 1_555 1_555
C3_2 C13_2 1_555 1_555
C13_2 H9_2 1_555 1_555
C16_2 S2_2 1_555 1_555
C17_2 C22_2 1_555 1_555
C18_2 C3_2 1_555 1_555
H12_2 C18_2 1_555 1_555
C25_2 C17_2 1_555 1_555
H15_2 C25_2 1_555 1_555
C26_2 C13_2 1_555 1_555
H16_2 C26_2 1_555 1_555
C31_2 C16_2 1_555 1_555
H20_2 C31_2 1_555 1_555
C34_2 S2_2 1_555 1_555
C37_2 C22_2 1_555 1_555
C38_2 C25_2 1_555 1_555
H26_2 C38_2 1_555 1_555
Gd6_2 O1_2 1_555 1_555
O26_2 Gd7 1_555 1_555
C16_2 C26_2 1_555 1_555
C18_2 C31_2 1_555 1_555
C34_2 C37_2 1_555 1_555
C34_2 C38_2 1_555 1_555
O23 C7_2 1_555 1_555
O7_2 Gd4 1_555 1_555
O11_2 Gd4 1_555 1_555
O12_2 C7_2 1_555 1_555
C4_2 C7_2 1_555 1_555
C9_2 C4_2 1_555 1_555
H7_2 C9_2 1_555 1_555
C10_2 C6_2 1_555 1_555
C14_2 C4_2 1_555 1_555
H10_2 C14_2 1_555 1_555
C30_2 C14_2 1_555 1_555
H19_2 C30_2 1_555 1_555
C33_2 C9_2 1_555 1_555
H22_2 C33_2 1_555 1_555
C40_2 C10_2 1_555 1_555
H28_2 C40_2 1_555 1_555
H30_2 C42_2 1_555 1_555
Gd6_2 O23 1_555 1_555
O7_2 C6_2 1_555 1_555
O12_2 Gd6_2 1_555 1_555
C19_2 C30_2 1_555 1_555
C19_2 C33_2 1_555 1_555
C40_2 C42_2 1_555 1_555
S1_2 O18_2 1_555 1_555
S3_2 O20_2 1_555 1_555
O8_2 C8_2 1_555 1_555
O27 C12_2 1_555 1_555
O29 C12_2 1_555 1_555
O19_2 S1_2 1_555 1_555
O21_2 S3_2 1_555 1_555
C5_2 C8_2 1_555 1_555
C8_2 O9_2 1_555 1_555
C11_2 C5_2 1_555 1_555
H8_2 C11_2 1_555 1_555
C12_2 C20_2 1_555 1_555
C15_2 C5_2 1_555 1_555
H11_2 C15_2 1_555 1_555
C20_2 C35_2 1_555 1_555
C21_2 S3_2 1_555 1_555
C23_2 C11_2 1_555 1_555
H14_2 C23_2 1_555 1_555
C24_2 S1_2 1_555 1_555
H17_2 C27_2 1_555 1_555
C28_2 S3_2 1_555 1_555
C29_2 C24_2 1_555 1_555
H18_2 C29_2 1_555 1_555
C32_2 C15_2 1_555 1_555
H21_2 C32_2 1_555 1_555
C35_2 H23_2 1_555 1_555
C36_2 C28_2 1_555 1_555
H24_2 C36_2 1_555 1_555
C39_2 C20_2 1_555 1_555
H27_2 C39_2 1_555 1_555
C41_2 C28_2 1_555 1_555
H29_2 C41_2 1_555 1_555
Gd8_2 O8_2 1_555 1_555
C21_2 C23_2 1_555 1_555
C21_2 C32_2 1_555 1_555
C27_2 C29_2 1_555 1_555
C35_2 C36_2 1_555 1_555
C39_2 C41_2 1_555 1_555
Gd6 O4_2 1_555 1_555
S2_3 O16_3 1_555 1_555
O22_2 C2_3 1_555 1_555
O17_3 S2_3 1_555 1_555
C2_3 C17_3 1_555 1_555
C17_3 C22_3 1_555 1_555
C25_3 C17_3 1_555 1_555
H15_3 C25_3 1_555 1_555
C34_3 S2_3 1_555 1_555
C37_3 C22_3 1_555 1_555
C38_3 C25_3 1_555 1_555
H26_3 C38_3 1_555 1_555
C34_3 C37_3 1_555 1_555
C34_3 C38_3 1_555 1_555
Gd6_2 O5_3 1_555 1_555
Gd8 O2_3 1_555 1_555
S1_3 O18_3 1_555 1_555
O2_3 C1_3 1_555 1_555
O24_2 C7_3 1_555 1_555
O5_3 C1_3 1_555 1_555
O6_3 Gd8 1_555 1_555
O7_3 Gd6_2 1_555 1_555
O26 C8_3 1_555 1_555
O9_3 Gd8 1_555 1_555
O11_3 Gd6_2 1_555 1_555
O28_2 C7_3 1_555 1_555
O13_3 Gd8 1_555 1_555
O14_3 Gd8 1_555 1_555
O19_3 S1_3 1_555 1_555
C1_3 C3_3 1_555 1_555
C3_3 C13_3 1_555 1_555
C4_3 C7_3 1_555 1_555
C5_3 C8_3 1_555 1_555
C6_3 O6_3 1_555 1_555
C8_3 O9_3 1_555 1_555
C9_3 C4_3 1_555 1_555
H7_3 C9_3 1_555 1_555
C10_3 C6_3 1_555 1_555
C11_3 C5_3 1_555 1_555
H8_3 C11_3 1_555 1_555
C13_3 H9_3 1_555 1_555
C14_3 C4_3 1_555 1_555
H10_3 C14_3 1_555 1_555
C15_3 C5_3 1_555 1_555
H11_3 C15_3 1_555 1_555
C18_3 C3_3 1_555 1_555
H12_3 C18_3 1_555 1_555
C19_3 S1_3 1_555 1_555
C23_3 C11_3 1_555 1_555
H14_3 C23_3 1_555 1_555
C24_3 S1_3 1_555 1_555
C26_3 C13_3 1_555 1_555
H16_3 C26_3 1_555 1_555
C27_3 C10_3 1_555 1_555
H17_3 C27_3 1_555 1_555
C29_3 C24_3 1_555 1_555
H18_3 C29_3 1_555 1_555
C30_3 C14_3 1_555 1_555
H19_3 C30_3 1_555 1_555
C31_3 C16_3 1_555 1_555
H20_3 C31_3 1_555 1_555
C32_3 C15_3 1_555 1_555
H21_3 C32_3 1_555 1_555
C33_3 C9_3 1_555 1_555
H22_3 C33_3 1_555 1_555
H27_3 C39_3 1_555 1_555
C40_3 C10_3 1_555 1_555
H28_3 C40_3 1_555 1_555
H29_3 C41_3 1_555 1_555
C42_3 C24_3 1_555 1_555
H30_3 C42_3 1_555 1_555
O25_2 Gd6_2 1_555 1_555
O27_2 Gd8 1_555 1_555
O29_2 Gd8 1_555 1_555
O7_3 C6_3 1_555 1_555
C16_3 C26_3 1_555 1_555
C18_3 C31_3 1_555 1_555
C19_3 C30_3 1_555 1_555
C19_3 C33_3 1_555 1_555
C21_3 C23_3 1_555 1_555
C21_3 C32_3 1_555 1_555
C27_3 C29_3 1_555 1_555
C39_3 C41_3 1_555 1_555
C40_3 C42_3 1_555 1_555
S3_3 O20_3 1_555 1_555
O15_2 C12_3 1_555 1_555
O21_3 S3_3 1_555 1_555
C12_3 C20_3 1_555 1_555
C20_3 C35_3 1_555 1_555
C28_3 S3_3 1_555 1_555
C35_3 H23_3 1_555 1_555
C36_3 C28_3 1_555 1_555
H24_3 C36_3 1_555 1_555
O15_2 Gd8_2 1_555 1_555
C35_3 C36_3 1_555 1_555
S1_4 O18_4 1_555 1_555
S3_4 O20_4 1_555 1_555
O26_2 C8_4 1_555 1_555
O27_2 C12_4 1_555 1_555
O29_2 C12_4 1_555 1_555
O19_4 S1_4 1_555 1_555
O21_4 S3_4 1_555 1_555
C5_4 C8_4 1_555 1_555
C8_4 O9_4 1_555 1_555
C11_4 C5_4 1_555 1_555
H8_4 C11_4 1_555 1_555
C12_4 C20_4 1_555 1_555
C15_4 C5_4 1_555 1_555
H11_4 C15_4 1_555 1_555
C20_4 C35_4 1_555 1_555
C21_4 S3_4 1_555 1_555
C23_4 C11_4 1_555 1_555
H14_4 C23_4 1_555 1_555
C24_4 S1_4 1_555 1_555
H17_4 C27_4 1_555 1_555
C28_4 S3_4 1_555 1_555
C29_4 C24_4 1_555 1_555
H18_4 C29_4 1_555 1_555
C32_4 C15_4 1_555 1_555
H21_4 C32_4 1_555 1_555
C35_4 H23_4 1_555 1_555
C36_4 C28_4 1_555 1_555
H24_4 C36_4 1_555 1_555
C39_4 C20_4 1_555 1_555
H27_4 C39_4 1_555 1_555
C41_4 C28_4 1_555 1_555
H29_4 C41_4 1_555 1_555
C21_4 C23_4 1_555 1_555
C21_4 C32_4 1_555 1_555
C27_4 C29_4 1_555 1_555
C35_4 C36_4 1_555 1_555
C39_4 C41_4 1_555 1_555
O24 C7_4 1_555 1_555
O7_4 Gd6 1_555 1_555
O11_4 Gd6 1_555 1_555
O28 C7_4 1_555 1_555
C4_4 C7_4 1_555 1_555
C9_4 C4_4 1_555 1_555
H7_4 C9_4 1_555 1_555
C10_4 C6_4 1_555 1_555
C14_4 C4_4 1_555 1_555
H10_4 C14_4 1_555 1_555
C30_4 C14_4 1_555 1_555
H19_4 C30_4 1_555 1_555
C33_4 C9_4 1_555 1_555
H22_4 C33_4 1_555 1_555
C40_4 C10_4 1_555 1_555
H28_4 C40_4 1_555 1_555
H30_4 C42_4 1_555 1_555
O7_4 C6_4 1_555 1_555
C19_4 C30_4 1_555 1_555
C19_4 C33_4 1_555 1_555
C40_4 C42_4 1_555 1_555
Gd8_2 O2_4 1_555 1_555
S2_4 O16_4 1_555 1_555
O22 C2_4 1_555 1_555
O2_4 C1_4 1_555 1_555
O5_4 C1_4 1_555 1_555
O17_4 S2_4 1_555 1_555
C1_4 C3_4 1_555 1_555
C2_4 C17_4 1_555 1_555
C3_4 C13_4 1_555 1_555
C13_4 H9_4 1_555 1_555
C16_4 S2_4 1_555 1_555
C17_4 C22_4 1_555 1_555
C18_4 C3_4 1_555 1_555
H12_4 C18_4 1_555 1_555
C25_4 C17_4 1_555 1_555
H15_4 C25_4 1_555 1_555
C26_4 C13_4 1_555 1_555
H16_4 C26_4 1_555 1_555
C31_4 C16_4 1_555 1_555
H20_4 C31_4 1_555 1_555
C34_4 S2_4 1_555 1_555
C37_4 C22_4 1_555 1_555
C38_4 C25_4 1_555 1_555
H26_4 C38_4 1_555 1_555
C16_4 C26_4 1_555 1_555
C18_4 C31_4 1_555 1_555
C34_4 C37_4 1_555 1_555
C34_4 C38_4 1_555 1_555

#END
