
###############################################################################
#
# This file contains modified crystal structure data generated from the
# MOF subset of the Cambridge Structural Database (CSD) v542 
# hosted by the Cambridge Crystallographic Data Centre (CCDC).
#
# This work is licensed under the Creative Commons
# Attribution-NonCommercial-ShareAlike 4.0 International License.
# To view a copy of this license, visit
# http://creativecommons.org/licenses/by-nc-sa/4.0/
# or send a letter to
# Creative Commons, PO Box 1866, Mountain View, CA 94042, USA.
#
# CIF created using the CSD Python API on 22 February 2021
# The structure has been converted into the P1 space group
# The structure has a 3D framework
# The original CSD entry QQQAWM01 is in the cubic crystal system
# The framework has been calculated to contain at least 10.0% void space
# The void calculation uses a probe of radius 1.32A, grid spacing 0.4
#
###############################################################################

data_QQQAWM01
_chemical_formula_moiety         '(C96 H96 Co20 O144)n'
_symmetry_cell_setting           triclinic
_symmetry_space_group_name_H-M   'P 1'
_symmetry_Int_Tables_number      1
_space_group_name_Hall           'P 1'
loop_
_symmetry_equiv_pos_site_id
_symmetry_equiv_pos_as_xyz
1 x,y,z
_cell_length_a                   16.280(5)
_cell_length_b                   16.280(5)
_cell_length_c                   16.280(5)
_cell_angle_alpha                90
_cell_angle_beta                 90
_cell_angle_gamma                90
_cell_volume                     4314.83
loop_
_atom_site_label
_atom_site_type_symbol
_atom_site_fract_x
_atom_site_fract_y
_atom_site_fract_z
Co6 Co 0.498343(19) 0.001657(19) 0.2500
Co1 Co 0.498343(19) 0.498343(19) 0.2500
O1 O 0.46045(14) 0.53739(13) 0.13678(13)
O2 O 0.38080(12) 0.48679(14) 0.30178(12)
O3 O 0.50401(14) 0.61842(12) 0.29980(12)
C1 C 0.30923(18) 0.48447(17) 0.27268(18)
C2 C 0.50095(18) 0.69045(18) 0.27183(19)
C3 C 0.22732(18) 0.48447(17) 0.30923(18)
O4 O 0.19822(12) 0.48679(14) 0.38080(12)
C4 C 0.19077(18) 0.48447(17) 0.22732(18)
O5 O 0.11920(12) 0.48679(14) 0.19822(12)
C5 C 0.27268(18) 0.48447(17) 0.19077(18)
O6 O 0.30178(12) 0.48679(14) 0.11920(12)
C6 C 0.49905(18) 0.77183(19) 0.30955(18)
O7 O 0.49599(14) 0.79980(12) 0.38158(12)
C7 C 0.50095(18) 0.80955(18) 0.22817(19)
O8 O 0.50401(14) 0.88158(12) 0.20020(12)
C8 C 0.49905(18) 0.72817(19) 0.19045(18)
O9 O 0.49599(14) 0.70020(12) 0.11842(12)
O10 O 0.53739(13) 0.46045(14) 0.36322(13)
Co2 Co 0.2500 0.498343(19) 0.498343(19)
O11 O 0.36322(13) 0.53739(13) 0.46045(14)
O12 O 0.13678(13) 0.46045(14) 0.53739(13)
O13 O 0.48679(14) 0.38080(12) 0.19822(12)
O14 O 0.61842(12) 0.50401(14) 0.20020(12)
Co3 Co 0.001657(19) 0.498343(19) 0.2500
Co4 Co 0.2500 0.498343(19) 0.001657(19)
Co5 Co 0.501657(19) 0.7500 0.501657(19)
O15 O 0.30178(12) 0.38080(12) 0.48679(14)
O16 O 0.29980(12) 0.50401(14) 0.61842(12)
O17 O 0.20020(12) 0.61842(12) 0.50401(14)
Co7 Co 0.501657(19) 0.7500 0.998343(19)
O2_2 O 0.01321(14) 0.38080(12) 0.30178(12)
C1_2 C 0.01553(17) 0.30923(18) 0.27268(18)
C3_2 C 0.01553(17) 0.22732(18) 0.30923(18)
O4_2 O 0.01321(14) 0.19822(12) 0.38080(12)
C4_2 C 0.01553(17) 0.19077(18) 0.22732(18)
O5_2 O 0.01321(14) 0.11920(12) 0.19822(12)
C5_2 C 0.01553(17) 0.27268(18) 0.19077(18)
O6_2 O 0.01321(14) 0.30178(12) 0.11920(12)
O10_2 O 0.03955(14) 0.53739(13) 0.36322(13)
Co2_2 Co 0.001657(19) 0.2500 0.498343(19)
O12_2 O 0.03955(14) 0.13678(13) 0.53739(13)
Co3_2 Co 0.001657(19) 0.001657(19) 0.2500
Co4_2 Co 0.001657(19) 0.2500 0.001657(19)
O15_2 O 0.11920(12) 0.30178(12) 0.48679(14)
O1_2 O 0.96261(13) 0.46045(14) 0.13678(13)
O3_2 O 0.88158(12) 0.50401(14) 0.29980(12)
C2_2 C 0.80955(18) 0.50095(18) 0.27183(19)
C6_2 C 0.72817(19) 0.49905(18) 0.30955(18)
O7_2 O 0.70020(12) 0.49599(14) 0.38158(12)
C7_2 C 0.69045(18) 0.50095(18) 0.22817(19)
C8_2 C 0.77183(19) 0.49905(18) 0.19045(18)
O9_2 O 0.79980(12) 0.49599(14) 0.11842(12)
O11_2 O 0.96261(13) 0.36322(13) 0.46045(14)
O14_2 O 0.99599(14) 0.61842(12) 0.20020(12)
Co5_2 Co 0.7500 0.501657(19) 0.501657(19)
O16_2 O 0.99599(14) 0.29980(12) 0.61842(12)
O17_2 O 0.88158(12) 0.20020(12) 0.50401(14)
Co7_2 Co 0.7500 0.501657(19) 0.998343(19)
O2_3 O 0.38080(12) 0.01321(14) 0.19822(12)
C1_3 C 0.30923(18) 0.01553(17) 0.22732(18)
C3_3 C 0.22732(18) 0.01553(17) 0.19077(18)
O4_3 O 0.19822(12) 0.01321(14) 0.11920(12)
C4_3 C 0.19077(18) 0.01553(17) 0.27268(18)
O5_3 O 0.11920(12) 0.01321(14) 0.30178(12)
C5_3 C 0.27268(18) 0.01553(17) 0.30923(18)
O6_3 O 0.30178(12) 0.01321(14) 0.38080(12)
O10_3 O 0.53739(13) 0.03955(14) 0.13678(13)
Co2_3 Co 0.2500 0.001657(19) 0.001657(19)
O13_2 O 0.48679(14) 0.11920(12) 0.30178(12)
Co4_3 Co 0.2500 0.001657(19) 0.498343(19)
O15_3 O 0.30178(12) 0.11920(12) 0.01321(14)
O12_3 O 0.13678(13) 0.03955(14) 0.96261(13)
O1_3 O 0.46045(14) 0.96261(13) 0.36322(13)
O11_3 O 0.36322(13) 0.96261(13) 0.03955(14)
O14_3 O 0.61842(12) 0.99599(14) 0.29980(12)
O16_3 O 0.29980(12) 0.99599(14) 0.88158(12)
O17_3 O 0.20020(12) 0.88158(12) 0.99599(14)
C1_4 C 0.27268(18) 0.30923(18) 0.48447(17)
C2_3 C 0.27183(19) 0.50095(18) 0.69045(18)
C3_4 C 0.30923(18) 0.22732(18) 0.48447(17)
O4_4 O 0.38080(12) 0.19822(12) 0.48679(14)
C4_4 C 0.22732(18) 0.19077(18) 0.48447(17)
O5_4 O 0.19822(12) 0.11920(12) 0.48679(14)
C5_4 C 0.19077(18) 0.27268(18) 0.48447(17)
C6_3 C 0.30955(18) 0.49905(18) 0.77183(19)
O7_3 O 0.38158(12) 0.49599(14) 0.79980(12)
C7_3 C 0.22817(19) 0.50095(18) 0.80955(18)
O8_2 O 0.20020(12) 0.50401(14) 0.88158(12)
C8_3 C 0.19045(18) 0.49905(18) 0.72817(19)
O9_3 O 0.11842(12) 0.49599(14) 0.70020(12)
Co2_4 Co 0.498343(19) 0.2500 0.498343(19)
O11_4 O 0.46045(14) 0.36322(13) 0.53739(13)
O12_4 O 0.53739(13) 0.13678(13) 0.46045(14)
Co5_3 Co 0.501657(19) 0.501657(19) 0.7500
O15_4 O 0.48679(14) 0.30178(12) 0.38080(12)
O16_4 O 0.61842(12) 0.29980(12) 0.50401(14)
O17_4 O 0.50401(14) 0.20020(12) 0.61842(12)
Co7_3 Co 0.998343(19) 0.501657(19) 0.7500
O12_5 O 0.36322(13) 0.03955(14) 0.53739(13)
O1_4 O 0.03955(14) 0.96261(13) 0.13678(13)
C6_4 C 0.00095(18) 0.72817(19) 0.30955(18)
O7_4 O 0.00401(14) 0.70020(12) 0.38158(12)
C8_4 C 0.00095(18) 0.77183(19) 0.19045(18)
O9_4 O 0.00401(14) 0.79980(12) 0.11842(12)
O11_5 O 0.13678(13) 0.96261(13) 0.46045(14)
O16_5 O 0.20020(12) 0.99599(14) 0.61842(12)
O17_5 O 0.29980(12) 0.88158(12) 0.50401(14)
O10_4 O 0.96261(13) 0.03955(14) 0.36322(13)
O3_3 O 0.99599(14) 0.88158(12) 0.29980(12)
C2_4 C 0.99905(18) 0.80955(18) 0.27183(19)
C7_4 C 0.99905(18) 0.69045(18) 0.22817(19)
O14_4 O 0.88158(12) 0.99599(14) 0.20020(12)
Co5_4 Co 0.998343(19) 0.7500 0.501657(19)
Co7_4 Co 0.998343(19) 0.7500 0.998343(19)
C1_5 C 0.48447(17) 0.30923(18) 0.22732(18)
C3_5 C 0.48447(17) 0.22732(18) 0.19077(18)
O4_5 O 0.48679(14) 0.19822(12) 0.11920(12)
C4_5 C 0.48447(17) 0.19077(18) 0.27268(18)
C5_5 C 0.48447(17) 0.27268(18) 0.30923(18)
Co2_5 Co 0.498343(19) 0.2500 0.001657(19)
O11_6 O 0.53739(13) 0.36322(13) 0.03955(14)
O15_5 O 0.38080(12) 0.30178(12) 0.01321(14)
O12_6 O 0.46045(14) 0.13678(13) 0.96261(13)
O16_6 O 0.50401(14) 0.29980(12) 0.88158(12)
O17_6 O 0.61842(12) 0.20020(12) 0.99599(14)
C6_5 C 0.00095(18) 0.30955(18) 0.77183(19)
O7_5 O 0.00401(14) 0.38158(12) 0.79980(12)
C8_5 C 0.00095(18) 0.19045(18) 0.72817(19)
O9_5 O 0.00401(14) 0.11842(12) 0.70020(12)
C2_5 C 0.99905(18) 0.27183(19) 0.69045(18)
C7_5 C 0.99905(18) 0.22817(19) 0.80955(18)
O8_3 O 0.99599(14) 0.20020(12) 0.88158(12)
Co7_5 Co 0.998343(19) 0.998343(19) 0.7500
C6_6 C 0.77183(19) 0.00095(18) 0.30955(18)
O7_6 O 0.79980(12) 0.00401(14) 0.38158(12)
C8_6 C 0.72817(19) 0.00095(18) 0.19045(18)
O9_6 O 0.70020(12) 0.00401(14) 0.11842(12)
C2_6 C 0.69045(18) 0.99905(18) 0.27183(19)
C7_6 C 0.80955(18) 0.99905(18) 0.22817(19)
Co5_5 Co 0.7500 0.998343(19) 0.501657(19)
Co7_6 Co 0.7500 0.998343(19) 0.998343(19)
O11_7 O 0.13678(13) 0.53739(13) 0.03955(14)
O15_6 O 0.19822(12) 0.38080(12) 0.01321(14)
O12_7 O 0.36322(13) 0.46045(14) 0.96261(13)
O17_7 O 0.29980(12) 0.61842(12) 0.99599(14)
C6_7 C 0.19045(18) 0.00095(18) 0.77183(19)
O7_7 O 0.11842(12) 0.00401(14) 0.79980(12)
C8_7 C 0.30955(18) 0.00095(18) 0.72817(19)
O9_7 O 0.38158(12) 0.00401(14) 0.70020(12)
C2_7 C 0.22817(19) 0.99905(18) 0.69045(18)
C7_7 C 0.27183(19) 0.99905(18) 0.80955(18)
Co7_7 Co 0.501657(19) 0.998343(19) 0.7500
O15_7 O 0.11920(12) 0.19822(12) 0.01321(14)
O12_8 O 0.03955(14) 0.36322(13) 0.96261(13)
O11_8 O 0.96261(13) 0.13678(13) 0.03955(14)
O17_8 O 0.88158(12) 0.29980(12) 0.99599(14)
C2_8 C 0.50095(18) 0.22817(19) 0.69045(18)
C6_8 C 0.49905(18) 0.19045(18) 0.77183(19)
O7_8 O 0.49599(14) 0.11842(12) 0.79980(12)
C7_8 C 0.50095(18) 0.27183(19) 0.80955(18)
C8_8 C 0.49905(18) 0.30955(18) 0.72817(19)
O9_8 O 0.49599(14) 0.38158(12) 0.70020(12)
C1_6 C 0.27268(18) 0.19077(18) 0.01553(17)
C3_6 C 0.30923(18) 0.27268(18) 0.01553(17)
C4_6 C 0.22732(18) 0.30923(18) 0.01553(17)
C5_6 C 0.19077(18) 0.22732(18) 0.01553(17)
C2_9 C 0.69045(18) 0.27183(19) 0.50095(18)
C6_9 C 0.77183(19) 0.30955(18) 0.49905(18)
O7_9 O 0.79980(12) 0.38158(12) 0.49599(14)
C7_9 C 0.80955(18) 0.22817(19) 0.50095(18)
C8_9 C 0.72817(19) 0.19045(18) 0.49905(18)
O9_9 O 0.70020(12) 0.11842(12) 0.49599(14)
C2_10 C 0.27183(19) 0.80955(18) 0.50095(18)
C6_10 C 0.30955(18) 0.72817(19) 0.49905(18)
O7_10 O 0.38158(12) 0.70020(12) 0.49599(14)
C7_10 C 0.22817(19) 0.69045(18) 0.50095(18)
C8_10 C 0.19045(18) 0.77183(19) 0.49905(18)
O9_10 O 0.11842(12) 0.79980(12) 0.49599(14)
C6_11 C 0.30955(18) 0.77183(19) 0.00095(18)
O7_11 O 0.38158(12) 0.79980(12) 0.00401(14)
C8_11 C 0.19045(18) 0.72817(19) 0.00095(18)
O9_11 O 0.11842(12) 0.70020(12) 0.00401(14)
C2_11 C 0.27183(19) 0.69045(18) 0.99905(18)
C7_11 C 0.22817(19) 0.80955(18) 0.99905(18)
C6_12 C 0.77183(19) 0.19045(18) 0.00095(18)
O7_12 O 0.79980(12) 0.11842(12) 0.00401(14)
C8_12 C 0.72817(19) 0.30955(18) 0.00095(18)
O9_12 O 0.70020(12) 0.38158(12) 0.00401(14)
C2_12 C 0.69045(18) 0.22817(19) 0.99905(18)
C7_12 C 0.80955(18) 0.27183(19) 0.99905(18)
O1_5 O 0.53955(14) 0.46261(13) 0.86322(13)
O2_4 O 0.61920(12) 0.51321(14) 0.69822(12)
C1_7 C 0.69077(18) 0.51553(17) 0.72732(18)
C3_7 C 0.77268(18) 0.51553(17) 0.69077(18)
O4_6 O 0.80178(12) 0.51321(14) 0.61920(12)
C4_7 C 0.80923(18) 0.51553(17) 0.77268(18)
O5_5 O 0.88080(12) 0.51321(14) 0.80178(12)
C5_7 C 0.72732(18) 0.51553(17) 0.80923(18)
O6_4 O 0.69822(12) 0.51321(14) 0.88080(12)
O10_5 O 0.46261(13) 0.53955(14) 0.63678(13)
O11_9 O 0.63678(13) 0.46261(13) 0.53955(14)
O12_9 O 0.86322(13) 0.53955(14) 0.46261(13)
O13_3 O 0.51321(14) 0.61920(12) 0.80178(12)
O15_8 O 0.69822(12) 0.61920(12) 0.51321(14)
O1_6 O 0.03739(13) 0.53955(14) 0.86322(13)
O11_10 O 0.03739(13) 0.63678(13) 0.53955(14)
O2_5 O 0.98679(14) 0.61920(12) 0.69822(12)
C1_8 C 0.98447(17) 0.69077(18) 0.72732(18)
C3_8 C 0.98447(17) 0.77268(18) 0.69077(18)
O4_7 O 0.98679(14) 0.80178(12) 0.61920(12)
C4_8 C 0.98447(17) 0.80923(18) 0.77268(18)
O5_6 O 0.98679(14) 0.88080(12) 0.80178(12)
C5_8 C 0.98447(17) 0.72732(18) 0.80923(18)
O6_5 O 0.98679(14) 0.69822(12) 0.88080(12)
O10_6 O 0.96045(14) 0.46261(13) 0.63678(13)
O12_10 O 0.96045(14) 0.86322(13) 0.46261(13)
O15_9 O 0.88080(12) 0.69822(12) 0.51321(14)
O1_7 O 0.53955(14) 0.03739(13) 0.63678(13)
O11_11 O 0.63678(13) 0.03739(13) 0.96045(14)
O12_11 O 0.86322(13) 0.96045(14) 0.03739(13)
O2_6 O 0.61920(12) 0.98679(14) 0.80178(12)
C1_9 C 0.69077(18) 0.98447(17) 0.77268(18)
C3_9 C 0.77268(18) 0.98447(17) 0.80923(18)
O4_8 O 0.80178(12) 0.98679(14) 0.88080(12)
C4_9 C 0.80923(18) 0.98447(17) 0.72732(18)
O5_7 O 0.88080(12) 0.98679(14) 0.69822(12)
C5_9 C 0.72732(18) 0.98447(17) 0.69077(18)
O6_6 O 0.69822(12) 0.98679(14) 0.61920(12)
O10_7 O 0.46261(13) 0.96045(14) 0.86322(13)
O13_4 O 0.51321(14) 0.88080(12) 0.69822(12)
O15_10 O 0.69822(12) 0.88080(12) 0.98679(14)
C1_10 C 0.72732(18) 0.69077(18) 0.51553(17)
C3_10 C 0.69077(18) 0.77268(18) 0.51553(17)
O4_9 O 0.61920(12) 0.80178(12) 0.51321(14)
C4_10 C 0.77268(18) 0.80923(18) 0.51553(17)
O5_8 O 0.80178(12) 0.88080(12) 0.51321(14)
C5_10 C 0.80923(18) 0.72732(18) 0.51553(17)
O11_12 O 0.53955(14) 0.63678(13) 0.46261(13)
O12_12 O 0.46261(13) 0.86322(13) 0.53955(14)
O15_11 O 0.51321(14) 0.69822(12) 0.61920(12)
O10_8 O 0.03739(13) 0.96045(14) 0.63678(13)
O1_8 O 0.96045(14) 0.03739(13) 0.86322(13)
O11_13 O 0.86322(13) 0.03739(13) 0.53955(14)
O12_13 O 0.63678(13) 0.96045(14) 0.46261(13)
O12_14 O 0.53955(14) 0.86322(13) 0.03739(13)
C1_11 C 0.51553(17) 0.69077(18) 0.77268(18)
C3_11 C 0.51553(17) 0.77268(18) 0.80923(18)
O4_10 O 0.51321(14) 0.80178(12) 0.88080(12)
C4_11 C 0.51553(17) 0.80923(18) 0.72732(18)
C5_11 C 0.51553(17) 0.72732(18) 0.69077(18)
O11_14 O 0.46261(13) 0.63678(13) 0.96045(14)
O15_12 O 0.61920(12) 0.69822(12) 0.98679(14)
O12_15 O 0.63678(13) 0.53955(14) 0.03739(13)
O11_15 O 0.86322(13) 0.46261(13) 0.96045(14)
O15_13 O 0.80178(12) 0.61920(12) 0.98679(14)
O11_16 O 0.03739(13) 0.86322(13) 0.96045(14)
O12_16 O 0.96045(14) 0.63678(13) 0.03739(13)
O15_14 O 0.88080(12) 0.80178(12) 0.98679(14)
C1_12 C 0.72732(18) 0.80923(18) 0.98447(17)
C3_12 C 0.69077(18) 0.72732(18) 0.98447(17)
C4_12 C 0.77268(18) 0.69077(18) 0.98447(17)
C5_12 C 0.80923(18) 0.77268(18) 0.98447(17)
loop_
_geom_bond_atom_site_label_1
_geom_bond_atom_site_label_2
_geom_bond_site_symmetry_1
_geom_bond_site_symmetry_2
Co1 O1 1_555 1_555
O2 Co1 1_555 1_555
O3 Co1 1_555 1_555
C1 O2 1_555 1_555
C2 O3 1_555 1_555
C3 C1 1_555 1_555
O4 C3 1_555 1_555
C4 C3 1_555 1_555
O5 C4 1_555 1_555
C5 C1 1_555 1_555
O6 C5 1_555 1_555
C6 C2 1_555 1_555
O7 C6 1_555 1_555
C7 C6 1_555 1_555
O8 C7 1_555 1_555
C8 C2 1_555 1_555
O9 C8 1_555 1_555
O10 Co1 1_555 1_555
Co2 O4 1_555 1_555
O11 Co2 1_555 1_555
O12 Co2 1_555 1_555
O13 Co1 1_555 1_555
O14 Co1 1_555 1_555
Co3 O5 1_555 1_555
Co4 O6 1_555 1_555
Co5 O7 1_555 1_555
O15 Co2 1_555 1_555
O16 Co2 1_555 1_555
O17 Co2 1_555 1_555
C4 C5 1_555 1_555
C7 C8 1_555 1_555
O2_2 Co3 1_555 1_555
C1_2 O2_2 1_555 1_555
C3_2 C1_2 1_555 1_555
O4_2 C3_2 1_555 1_555
C4_2 C3_2 1_555 1_555
O5_2 C4_2 1_555 1_555
C5_2 C1_2 1_555 1_555
O6_2 C5_2 1_555 1_555
O10_2 Co3 1_555 1_555
Co2_2 O4_2 1_555 1_555
O12_2 Co2_2 1_555 1_555
Co3_2 O5_2 1_555 1_555
Co4_2 O6_2 1_555 1_555
O15_2 Co2_2 1_555 1_555
C4_2 C5_2 1_555 1_555
C2_2 O3_2 1_555 1_555
C6_2 C2_2 1_555 1_555
O7_2 C6_2 1_555 1_555
C7_2 C6_2 1_555 1_555
O14 C7_2 1_555 1_555
C8_2 C2_2 1_555 1_555
O9_2 C8_2 1_555 1_555
Co5_2 O7_2 1_555 1_555
C7_2 C8_2 1_555 1_555
O2_3 Co6 1_555 1_555
C1_3 O2_3 1_555 1_555
C3_3 C1_3 1_555 1_555
O4_3 C3_3 1_555 1_555
C4_3 C3_3 1_555 1_555
O5_3 C4_3 1_555 1_555
C5_3 C1_3 1_555 1_555
O6_3 C5_3 1_555 1_555
O10_3 Co6 1_555 1_555
Co2_3 O4_3 1_555 1_555
O13_2 Co6 1_555 1_555
Co3_2 O5_3 1_555 1_555
Co4_3 O6_3 1_555 1_555
O15_3 Co2_3 1_555 1_555
C4_3 C5_3 1_555 1_555
C1_4 O15 1_555 1_555
C2_3 O16 1_555 1_555
C3_4 C1_4 1_555 1_555
O4_4 C3_4 1_555 1_555
C4_4 C3_4 1_555 1_555
O5_4 C4_4 1_555 1_555
C5_4 C1_4 1_555 1_555
O15_2 C5_4 1_555 1_555
C6_3 C2_3 1_555 1_555
O7_3 C6_3 1_555 1_555
C7_3 C6_3 1_555 1_555
O8_2 C7_3 1_555 1_555
C8_3 C2_3 1_555 1_555
O9_3 C8_3 1_555 1_555
Co2_4 O4_4 1_555 1_555
O11_4 Co2_4 1_555 1_555
O12_4 Co2_4 1_555 1_555
Co4_3 O5_4 1_555 1_555
Co5_3 O7_3 1_555 1_555
O15_4 Co2_4 1_555 1_555
O16_4 Co2_4 1_555 1_555
O17_4 Co2_4 1_555 1_555
C4_4 C5_4 1_555 1_555
C7_3 C8_3 1_555 1_555
O12_5 Co4_3 1_555 1_555
O7_4 C6_4 1_555 1_555
O9_4 C8_4 1_555 1_555
C2_4 O3_3 1_555 1_555
O14_2 C7_4 1_555 1_555
C1_5 O13 1_555 1_555
C3_5 C1_5 1_555 1_555
O4_5 C3_5 1_555 1_555
C4_5 C3_5 1_555 1_555
O13_2 C4_5 1_555 1_555
C5_5 C1_5 1_555 1_555
O15_4 C5_5 1_555 1_555
Co2_5 O4_5 1_555 1_555
O11_6 Co2_5 1_555 1_555
O15_5 Co2_5 1_555 1_555
C4_5 C5_5 1_555 1_555
O7_5 C6_5 1_555 1_555
O9_5 C8_5 1_555 1_555
C2_5 O16_2 1_555 1_555
O8_3 C7_5 1_555 1_555
O7_6 C6_6 1_555 1_555
O9_6 C8_6 1_555 1_555
C2_6 O14_3 1_555 1_555
O14_4 C7_6 1_555 1_555
O11_7 Co4 1_555 1_555
O15_6 Co4 1_555 1_555
O7_7 C6_7 1_555 1_555
O9_7 C8_7 1_555 1_555
C2_7 O16_5 1_555 1_555
O16_3 C7_7 1_555 1_555
O15_7 Co4_2 1_555 1_555
C2_8 O17_4 1_555 1_555
C6_8 C2_8 1_555 1_555
O7_8 C6_8 1_555 1_555
C7_8 C6_8 1_555 1_555
O16_6 C7_8 1_555 1_555
C8_8 C2_8 1_555 1_555
O9_8 C8_8 1_555 1_555
Co5_3 O9_8 1_555 1_555
C7_8 C8_8 1_555 1_555
C1_6 O15_3 1_555 1_555
C3_6 C1_6 1_555 1_555
O15_5 C3_6 1_555 1_555
C4_6 C3_6 1_555 1_555
O15_6 C4_6 1_555 1_555
C5_6 C1_6 1_555 1_555
O15_7 C5_6 1_555 1_555
C4_6 C5_6 1_555 1_555
C2_9 O16_4 1_555 1_555
C6_9 C2_9 1_555 1_555
O7_9 C6_9 1_555 1_555
C7_9 C6_9 1_555 1_555
O17_2 C7_9 1_555 1_555
C8_9 C2_9 1_555 1_555
O9_9 C8_9 1_555 1_555
Co5_2 O7_9 1_555 1_555
C7_9 C8_9 1_555 1_555
C2_10 O17_5 1_555 1_555
C6_10 C2_10 1_555 1_555
O7_10 C6_10 1_555 1_555
C7_10 C6_10 1_555 1_555
O17 C7_10 1_555 1_555
C8_10 C2_10 1_555 1_555
O9_10 C8_10 1_555 1_555
Co5 O7_10 1_555 1_555
C7_10 C8_10 1_555 1_555
O7_11 C6_11 1_555 1_555
O9_11 C8_11 1_555 1_555
C2_11 O17_7 1_555 1_555
O17_3 C7_11 1_555 1_555
O7_12 C6_12 1_555 1_555
O9_12 C8_12 1_555 1_555
C2_12 O17_6 1_555 1_555
O17_8 C7_12 1_555 1_555
Co5_3 O1_5 1_555 1_555
O2_4 Co5_3 1_555 1_555
C1_7 O2_4 1_555 1_555
C3_7 C1_7 1_555 1_555
O4_6 C3_7 1_555 1_555
C4_7 C3_7 1_555 1_555
O5_5 C4_7 1_555 1_555
C5_7 C1_7 1_555 1_555
O6_4 C5_7 1_555 1_555
O10_5 Co5_3 1_555 1_555
Co5_2 O4_6 1_555 1_555
O11_9 Co5_2 1_555 1_555
O12_9 Co5_2 1_555 1_555
O13_3 Co5_3 1_555 1_555
Co7_3 O5_5 1_555 1_555
Co7_2 O6_4 1_555 1_555
O15_8 Co5_2 1_555 1_555
C4_7 C5_7 1_555 1_555
O2_5 Co7_3 1_555 1_555
C1_8 O2_5 1_555 1_555
C3_8 C1_8 1_555 1_555
O4_7 C3_8 1_555 1_555
C4_8 C3_8 1_555 1_555
O5_6 C4_8 1_555 1_555
C5_8 C1_8 1_555 1_555
O6_5 C5_8 1_555 1_555
O10_6 Co7_3 1_555 1_555
Co5_4 O4_7 1_555 1_555
O12_10 Co5_4 1_555 1_555
Co7_5 O5_6 1_555 1_555
Co7_4 O6_5 1_555 1_555
O15_9 Co5_4 1_555 1_555
C4_8 C5_8 1_555 1_555
O2_6 Co7_7 1_555 1_555
C1_9 O2_6 1_555 1_555
C3_9 C1_9 1_555 1_555
O4_8 C3_9 1_555 1_555
C4_9 C3_9 1_555 1_555
O5_7 C4_9 1_555 1_555
C5_9 C1_9 1_555 1_555
O6_6 C5_9 1_555 1_555
O10_7 Co7_7 1_555 1_555
Co7_6 O4_8 1_555 1_555
O13_4 Co7_7 1_555 1_555
Co7_5 O5_7 1_555 1_555
Co5_5 O6_6 1_555 1_555
O15_10 Co7_6 1_555 1_555
C4_9 C5_9 1_555 1_555
C1_10 O15_8 1_555 1_555
C3_10 C1_10 1_555 1_555
O4_9 C3_10 1_555 1_555
C4_10 C3_10 1_555 1_555
O5_8 C4_10 1_555 1_555
C5_10 C1_10 1_555 1_555
O15_9 C5_10 1_555 1_555
Co5 O4_9 1_555 1_555
O11_12 Co5 1_555 1_555
O12_12 Co5 1_555 1_555
Co5_5 O5_8 1_555 1_555
O15_11 Co5 1_555 1_555
C4_10 C5_10 1_555 1_555
O12_13 Co5_5 1_555 1_555
C1_11 O13_3 1_555 1_555
C3_11 C1_11 1_555 1_555
O4_10 C3_11 1_555 1_555
C4_11 C3_11 1_555 1_555
O13_4 C4_11 1_555 1_555
C5_11 C1_11 1_555 1_555
O15_11 C5_11 1_555 1_555
Co7 O4_10 1_555 1_555
O11_14 Co7 1_555 1_555
O15_12 Co7 1_555 1_555
C4_11 C5_11 1_555 1_555
O11_15 Co7_2 1_555 1_555
O15_13 Co7_2 1_555 1_555
O15_14 Co7_4 1_555 1_555
C1_12 O15_10 1_555 1_555
C3_12 C1_12 1_555 1_555
O15_12 C3_12 1_555 1_555
C4_12 C3_12 1_555 1_555
O15_13 C4_12 1_555 1_555
C5_12 C1_12 1_555 1_555
O15_14 C5_12 1_555 1_555
C4_12 C5_12 1_555 1_555

#END
