
###############################################################################
#
# This file contains modified crystal structure data generated from the
# MOF subset of the Cambridge Structural Database (CSD) v542 
# hosted by the Cambridge Crystallographic Data Centre (CCDC).
#
# This work is licensed under the Creative Commons
# Attribution-NonCommercial-ShareAlike 4.0 International License.
# To view a copy of this license, visit
# http://creativecommons.org/licenses/by-nc-sa/4.0/
# or send a letter to
# Creative Commons, PO Box 1866, Mountain View, CA 94042, USA.
#
# CIF created using the CSD Python API on 22 February 2021
# The structure has been converted into the P1 space group
# The structure has a 3D framework
# The original CSD entry QUKROG is in the monoclinic crystal system
# The framework has been calculated to contain at least 10.0% void space
# The void calculation uses a probe of radius 1.32A, grid spacing 0.4
#
###############################################################################

data_QUKROG
_chemical_formula_moiety         '(C240 H192 Co14 N24 O70)n'
_symmetry_cell_setting           triclinic
_symmetry_space_group_name_H-M   'P 1'
_symmetry_Int_Tables_number      1
_space_group_name_Hall           'P 1'
loop_
_symmetry_equiv_pos_site_id
_symmetry_equiv_pos_as_xyz
1 x,y,z
_cell_length_a                   14.1637(12)
_cell_length_b                   17.9362(10)
_cell_length_c                   24.996(2)
_cell_angle_alpha                90
_cell_angle_beta                 92.9670(10)
_cell_angle_gamma                90
_cell_volume                     6341.55
loop_
_atom_site_label
_atom_site_type_symbol
_atom_site_fract_x
_atom_site_fract_y
_atom_site_fract_z
Co1 Co 0.00343(6) 0.18422(5) 0.49115(3)
Co2 Co 0.250000 0.250000 0.500000
O1 O 0.0492(3) 0.1162(3) 0.42606(17)
O2 O 0.1377(3) 0.2149(2) 0.44039(14)
O3 O 0.2490(3) 0.1180(3) 0.20878(18)
O6 O 0.3446(3) 0.1783(2) 0.45965(15)
O7 O 0.4880(3) 0.2248(3) 0.45941(18)
O8 O 0.500000 0.0357(3) 0.250000
C1 C 0.1120(4) 0.1598(4) 0.4111(2)
C2 C 0.1491(4) 0.1489(3) 0.3583(2)
C3 C 0.1238(5) 0.0850(4) 0.3301(2)
H1 H 0.085507 0.049418 0.345202
C4 C 0.1550(5) 0.0743(4) 0.2802(3)
H2 H 0.137137 0.031777 0.260920
C5 C 0.2123(5) 0.1257(4) 0.2583(2)
C6 C 0.2384(5) 0.1886(3) 0.2859(2)
H3 H 0.277350 0.223683 0.270802
C7 C 0.2064(4) 0.1998(3) 0.3364(2)
H4 H 0.224272 0.242375 0.355519
C8 C 0.2228(5) 0.0580(4) 0.1757(2)
C9 C 0.1402(5) 0.0601(4) 0.1461(3)
H5 H 0.099141 0.100196 0.148790
C10 C 0.1182(5) 0.0031(4) 0.1124(3)
H6 H 0.060702 0.003407 0.092713
C13 C 0.2847(5) 0.0005(4) 0.1723(3)
C15 C 0.4228(4) 0.1861(3) 0.4407(2)
C16 C 0.4421(4) 0.1456(3) 0.3895(2)
C17 C 0.3873(4) 0.0882(3) 0.3704(2)
H9 H 0.335941 0.073476 0.389617
C18 C 0.4052(5) 0.0510(4) 0.3235(2)
H10 H 0.368846 0.010337 0.311969
C19 C 0.4777(5) 0.0761(4) 0.2952(2)
C20 C 0.5312(5) 0.1363(4) 0.3119(3)
H11 H 0.578344 0.154481 0.290870
C21 C 0.5146(5) 0.1692(4) 0.3598(3)
H12 H 0.553065 0.208189 0.372269
C29 C 0.0091(10) 0.3724(8) 0.3253(6)
H19 H 0.033908 0.412153 0.347528
H21 H 0.059880 0.348557 0.307856
O10 O 0.6554(3) 0.1783(2) 0.04035(15)
O11 O 0.5120(3) 0.2248(3) 0.04059(18)
C37 C 0.5772(4) 0.1861(3) 0.0593(2)
C38 C 0.5579(4) 0.1456(3) 0.1105(2)
C39 C 0.6127(4) 0.0882(3) 0.1296(2)
H30 H 0.664059 0.073476 0.110383
C40 C 0.5948(5) 0.0510(4) 0.1765(2)
H31 H 0.631154 0.010337 0.188031
C41 C 0.5223(5) 0.0761(4) 0.2048(2)
C42 C 0.4688(5) 0.1363(4) 0.1881(3)
H32 H 0.421656 0.154481 0.209130
C43 C 0.4854(5) 0.1692(4) 0.1402(3)
H33 H 0.446935 0.208189 0.127731
O15 O 0.2190(3) 0.1594(2) 0.55402(16)
O16 O 0.0725(3) 0.1170(2) 0.54759(18)
C54 C 0.1804(4) 0.0558(3) 0.6069(2)
C55 C 0.2623(5) 0.0559(4) 0.6363(3)
H40 H 0.304932 0.094712 0.632319
H41 H 0.340531 0.000758 0.693575
C57 C 0.1552(5) 0.1164(3) 0.5665(2)
Co6 Co 0.49657(6) 0.31578(5) 0.50885(3)
Co8 Co 0.750000 0.250000 0.000000
O18 O 0.3623(3) 0.2851(2) 0.55961(14)
O19 O 0.2810(3) 0.3406(2) 0.44598(16)
O21 O 0.1554(3) 0.3217(2) 0.54035(15)
O23 O 0.0120(3) 0.2752(3) 0.54059(18)
Co7 Co 0.50343(6) 0.31578(5) 0.99115(3)
Co8_2 Co 0.750000 0.250000 1.000000
Co10 Co 0.250000 0.750000 0.000000
O20 O 0.0725(3) 0.8830(2) 0.04759(18)
O22 O 0.0120(3) 0.7248(3) 0.04059(18)
O4 O 0.2190(3) 0.8406(2) 0.05402(16)
C11 C 0.1804(4) 0.9442(3) 0.1069(2)
C12 C 0.2623(5) 0.9441(4) 0.1363(3)
H7 H 0.304932 0.905288 0.132319
H8 H 0.340531 0.999242 0.193575
C14 C 0.1552(5) 0.8836(3) 0.0665(2)
Co3 Co 0.00343(6) 0.81578(5) 0.99115(3)
O12 O 0.0492(3) 0.8838(3) 0.92606(17)
O13 O 0.1377(3) 0.7851(2) 0.94039(14)
O14 O 0.2490(3) 0.8820(3) 0.70878(18)
C44 C 0.1120(4) 0.8402(4) 0.9111(2)
C45 C 0.1491(4) 0.8511(3) 0.8583(2)
C46 C 0.1238(5) 0.9150(4) 0.8301(2)
H34 H 0.085507 0.950582 0.845202
C47 C 0.1550(5) 0.9257(4) 0.7802(3)
H35 H 0.137137 0.968223 0.760920
C48 C 0.2123(5) 0.8743(4) 0.7583(2)
C49 C 0.2384(5) 0.8114(3) 0.7859(2)
H36 H 0.277350 0.776317 0.770802
C50 C 0.2064(4) 0.8002(3) 0.8364(2)
H37 H 0.224272 0.757625 0.855519
C51 C 0.2228(5) 0.9420(4) 0.6757(2)
C52 C 0.1402(5) 0.9399(4) 0.6461(3)
H38 H 0.099141 0.899804 0.648790
C53 C 0.1182(5) 0.9969(4) 0.6124(3)
H39 H 0.060702 0.996593 0.592713
C56 C 0.2847(5) 0.9995(4) 0.6723(3)
C59 C 0.0091(10) 0.6276(8) 0.8253(6)
H43 H 0.033908 0.587847 0.847528
H45 H 0.059880 0.651443 0.807856
Co10_2 Co 0.250000 0.750000 1.000000
Co4 Co 0.99657(6) 0.81578(5) 0.50885(3)
Co1_2 Co 0.99657(6) 0.18422(5) 0.00885(3)
O1_2 O 0.9508(3) 0.1162(3) 0.07394(17)
O2_2 O 0.8623(3) 0.2149(2) 0.05961(14)
O3_2 O 0.7510(3) 0.1180(3) 0.29122(18)
C1_2 C 0.8880(4) 0.1598(4) 0.0889(2)
C2_2 C 0.8509(4) 0.1489(3) 0.1417(2)
C3_2 C 0.8762(5) 0.0850(4) 0.1699(2)
H1_2 H 0.914493 0.049418 0.154798
C4_2 C 0.8450(5) 0.0743(4) 0.2198(3)
H2_2 H 0.862863 0.031777 0.239080
C5_2 C 0.7877(5) 0.1257(4) 0.2417(2)
C6_2 C 0.7616(5) 0.1886(3) 0.2141(2)
H3_2 H 0.722650 0.223683 0.229198
C7_2 C 0.7936(4) 0.1998(3) 0.1636(2)
H4_2 H 0.775728 0.242375 0.144481
C8_2 C 0.7772(5) 0.0580(4) 0.3243(2)
C9_2 C 0.8598(5) 0.0601(4) 0.3539(3)
H5_2 H 0.900859 0.100196 0.351210
C10_2 C 0.8818(5) 0.0031(4) 0.3876(3)
H6_2 H 0.939298 0.003407 0.407287
C13_2 C 0.7153(5) 0.0005(4) 0.3277(3)
C29_2 C 0.9909(10) 0.3724(8) 0.1747(6)
H19_2 H 0.966092 0.412153 0.152472
H21_2 H 0.940120 0.348557 0.192144
O19_2 O 0.7190(3) 0.3406(2) 0.05402(16)
O15_2 O 0.7810(3) 0.1594(2) 0.94598(16)
O16_2 O 0.9275(3) 0.1170(2) 0.95241(18)
C54_2 C 0.8196(4) 0.0558(3) 0.8931(2)
C55_2 C 0.7377(5) 0.0559(4) 0.8637(3)
H40_2 H 0.695068 0.094712 0.867681
H41_2 H 0.659469 0.000758 0.806425
C57_2 C 0.8448(5) 0.1164(3) 0.9335(2)
O18_2 O 0.6377(3) 0.2851(2) 0.94039(14)
O21_2 O 0.8446(3) 0.3217(2) 0.95965(15)
O23_2 O 0.9880(3) 0.2752(3) 0.95941(18)
O4_2 O 0.7810(3) 0.8406(2) 0.44598(16)
O5 O 0.9275(3) 0.8830(2) 0.45241(18)
C11_2 C 0.8196(4) 0.9442(3) 0.3931(2)
C12_2 C 0.7377(5) 0.9441(4) 0.3637(3)
H7_2 H 0.695068 0.905288 0.367681
H8_2 H 0.659469 0.999242 0.306425
C14_2 C 0.8448(5) 0.8836(3) 0.4335(2)
Co9 Co 0.750000 0.750000 0.500000
O12_2 O 0.9508(3) 0.8838(3) 0.57394(17)
O13_2 O 0.8623(3) 0.7851(2) 0.55961(14)
O14_2 O 0.7510(3) 0.8820(3) 0.79122(18)
C44_2 C 0.8880(4) 0.8402(4) 0.5889(2)
C45_2 C 0.8509(4) 0.8511(3) 0.6417(2)
C46_2 C 0.8762(5) 0.9150(4) 0.6699(2)
H34_2 H 0.914493 0.950582 0.654798
C47_2 C 0.8450(5) 0.9257(4) 0.7198(3)
H35_2 H 0.862863 0.968223 0.739080
C48_2 C 0.7877(5) 0.8743(4) 0.7417(2)
C49_2 C 0.7616(5) 0.8114(3) 0.7141(2)
H36_2 H 0.722650 0.776317 0.729198
C50_2 C 0.7936(4) 0.8002(3) 0.6636(2)
H37_2 H 0.775728 0.757625 0.644481
C51_2 C 0.7772(5) 0.9420(4) 0.8243(2)
C52_2 C 0.8598(5) 0.9399(4) 0.8539(3)
H38_2 H 0.900859 0.899804 0.851210
C53_2 C 0.8818(5) 0.9969(4) 0.8876(3)
H39_2 H 0.939298 0.996593 0.907287
C56_2 C 0.7153(5) 0.9995(4) 0.8277(3)
C59_2 C 0.9909(10) 0.6276(8) 0.6747(6)
H43_2 H 0.966092 0.587847 0.652472
H45_2 H 0.940120 0.651443 0.692144
O22_2 O 0.9880(3) 0.7248(3) 0.45941(18)
O8_2 O 0.000000 0.5357(3) 0.250000
C20_2 C 0.0312(5) 0.6363(4) 0.3119(3)
H11_2 H 0.078344 0.654481 0.290870
C21_2 C 0.0146(5) 0.6692(4) 0.3598(3)
H12_2 H 0.053065 0.708189 0.372269
O10_2 O 0.1554(3) 0.6783(2) 0.04035(15)
C37_2 C 0.0772(4) 0.6861(3) 0.0593(2)
C38_2 C 0.0579(4) 0.6456(3) 0.1105(2)
C39_2 C 0.1127(4) 0.5882(3) 0.1296(2)
H30_2 H 0.164059 0.573476 0.110383
C40_2 C 0.0948(5) 0.5510(4) 0.1765(2)
H31_2 H 0.131154 0.510337 0.188031
C41_2 C 0.0223(5) 0.5761(4) 0.2048(2)
N7 N 0.3664(3) 0.3752(3) 0.00119(19)
O20_2 O 0.5725(3) 0.3830(2) 0.04759(18)
Co1_3 Co 0.50343(6) 0.68422(5) 0.49115(3)
N1 N 0.3664(3) 0.6248(3) 0.50119(19)
N2 N 0.0365(5) 0.5276(4) 0.5001(3)
O1_3 O 0.5492(3) 0.6162(3) 0.42606(17)
O2_3 O 0.6377(3) 0.7149(2) 0.44039(14)
O3_3 O 0.7490(3) 0.6180(3) 0.20878(18)
O6_2 O 0.8446(3) 0.6783(2) 0.45965(15)
O8_3 O 1.000000 0.5357(3) 0.250000
O9 O 0.4259(4) 0.7509(3) 0.4296(2)
C1_3 C 0.6120(4) 0.6598(4) 0.4111(2)
C2_3 C 0.6491(4) 0.6489(3) 0.3583(2)
C3_3 C 0.6238(5) 0.5850(4) 0.3301(2)
H1_3 H 0.585507 0.549418 0.345202
C4_3 C 0.6550(5) 0.5743(4) 0.2802(3)
H2_3 H 0.637137 0.531777 0.260920
C5_3 C 0.7123(5) 0.6257(4) 0.2583(2)
C6_3 C 0.7384(5) 0.6886(3) 0.2859(2)
H3_3 H 0.777350 0.723683 0.270802
C7_3 C 0.7064(4) 0.6998(3) 0.3364(2)
H4_3 H 0.724272 0.742375 0.355519
C8_3 C 0.7228(5) 0.5580(4) 0.1757(2)
C9_3 C 0.6402(5) 0.5601(4) 0.1461(3)
H5_3 H 0.599141 0.600196 0.148790
C10_3 C 0.6182(5) 0.5031(4) 0.1124(3)
H6_3 H 0.560702 0.503407 0.092713
C11_3 C 0.6804(4) 0.4442(3) 0.1069(2)
C12_3 C 0.7623(5) 0.4441(4) 0.1363(3)
H7_3 H 0.804932 0.405288 0.132319
C13_3 C 0.7847(5) 0.5005(4) 0.1723(3)
H8_3 H 0.840531 0.499242 0.193575
C14_3 C 0.6552(5) 0.3836(3) 0.0665(2)
C15_2 C 0.9228(4) 0.6861(3) 0.4407(2)
C16_2 C 0.9421(4) 0.6456(3) 0.3895(2)
C17_2 C 0.8873(4) 0.5882(3) 0.3704(2)
H9_2 H 0.835941 0.573476 0.389617
C18_2 C 0.9052(5) 0.5510(4) 0.3235(2)
H10_2 H 0.868846 0.510337 0.311969
C19_2 C 0.9777(5) 0.5761(4) 0.2952(2)
C22 C 0.3657(4) 0.5552(3) 0.5192(2)
H13 H 0.422226 0.533993 0.532164
C23 C 0.2851(4) 0.5136(4) 0.5192(2)
H14 H 0.287926 0.464891 0.532013
C24 C 0.2022(4) 0.5417(4) 0.5012(3)
C25 C 0.2017(4) 0.6149(4) 0.4824(3)
H15 H 0.145845 0.637330 0.469465
C26 C 0.2842(5) 0.6520(4) 0.4834(3)
H16 H 0.283187 0.700680 0.470513
C27 C 0.1176(4) 0.4965(3) 0.5008(3)
H17 H 0.122325 0.444756 0.501030
N3 N 0.4609(7) 0.8165(5) 0.3592(4)
C28 C 0.4576(8) 0.8021(6) 0.4122(5)
H18 H 0.483701 0.837302 0.435952
C29_3 C 0.5091(10) 0.8724(8) 0.3253(6)
H19_3 H 0.533908 0.912153 0.347528
H20 H 0.464436 0.892117 0.298787
H21_3 H 0.559880 0.848557 0.307856
C30 C 0.4245(11) 0.7572(7) 0.3176(6)
H22 H 0.448463 0.709014 0.328075
H23 H 0.445900 0.769784 0.282947
H24 H 0.356630 0.756247 0.316206
C42_2 C 0.9688(5) 0.6363(4) 0.1881(3)
H32_2 H 0.921656 0.654481 0.209130
C43_2 C 0.9854(5) 0.6692(4) 0.1402(3)
H33_2 H 0.946935 0.708189 0.127731
O12_3 O 0.5492(3) 0.3838(3) 0.92606(17)
O14_3 O 0.7490(3) 0.3820(3) 0.70878(18)
O15_3 O 0.7190(3) 0.6594(2) 0.55402(16)
O16_3 O 0.5725(3) 0.6170(2) 0.54759(18)
O17 O 0.4259(4) 0.2491(3) 0.9296(2)
C44_3 C 0.6120(4) 0.3402(4) 0.9111(2)
C45_3 C 0.6491(4) 0.3511(3) 0.8583(2)
C46_3 C 0.6238(5) 0.4150(4) 0.8301(2)
H34_3 H 0.585507 0.450582 0.845202
C47_3 C 0.6550(5) 0.4257(4) 0.7802(3)
H35_3 H 0.637137 0.468223 0.760920
C48_3 C 0.7123(5) 0.3743(4) 0.7583(2)
C49_3 C 0.7384(5) 0.3114(3) 0.7859(2)
H36_3 H 0.777350 0.276317 0.770802
C50_3 C 0.7064(4) 0.3002(3) 0.8364(2)
H37_3 H 0.724272 0.257625 0.855519
C51_3 C 0.7228(5) 0.4420(4) 0.6757(2)
C52_3 C 0.6402(5) 0.4399(4) 0.6461(3)
H38_3 H 0.599141 0.399804 0.648790
C53_3 C 0.6182(5) 0.4969(4) 0.6124(3)
H39_3 H 0.560702 0.496593 0.592713
C54_3 C 0.6804(4) 0.5558(3) 0.6069(2)
C55_3 C 0.7623(5) 0.5559(4) 0.6363(3)
H40_3 H 0.804932 0.594712 0.632319
C56_3 C 0.7847(5) 0.4995(4) 0.6723(3)
H41_3 H 0.840531 0.500758 0.693575
C57_3 C 0.6552(5) 0.6164(3) 0.5665(2)
N6 N 0.4609(7) 0.1835(5) 0.8592(4)
C58 C 0.4576(8) 0.1979(6) 0.9122(5)
H42 H 0.483701 0.162698 0.935952
C59_3 C 0.5091(10) 0.1276(8) 0.8253(6)
H43_3 H 0.533908 0.087847 0.847528
H44 H 0.464436 0.107883 0.798787
H45_3 H 0.559880 0.151443 0.807856
C60 C 0.4245(11) 0.2428(7) 0.8176(6)
H46 H 0.448463 0.290986 0.828075
H47 H 0.445900 0.230216 0.782947
H48 H 0.356630 0.243753 0.816206
O21_3 O 0.6554(3) 0.8217(2) 0.54035(15)
O23_3 O 0.5120(3) 0.7752(3) 0.54059(18)
N4 N 0.6336(3) 0.3752(3) 0.49881(19)
N5 N 0.9635(5) 0.4724(4) 0.4999(3)
C31 C 0.6343(4) 0.4448(3) 0.4808(2)
H25 H 0.577774 0.466007 0.467836
C32 C 0.7149(4) 0.4864(4) 0.4808(2)
H26 H 0.712074 0.535109 0.467987
C33 C 0.7978(4) 0.4583(4) 0.4988(3)
C34 C 0.7983(4) 0.3851(4) 0.5176(3)
H27 H 0.854155 0.362670 0.530535
C35 C 0.7158(5) 0.3480(4) 0.5166(3)
H28 H 0.716813 0.299320 0.529487
C36 C 0.8824(4) 0.5035(3) 0.4992(3)
H29 H 0.877675 0.555244 0.498970
N5_2 N 0.0365(5) 0.4724(4) 0.0001(3)
C31_2 C 0.3657(4) 0.4448(3) 0.0192(2)
H25_2 H 0.422226 0.466007 0.032164
C32_2 C 0.2851(4) 0.4864(4) 0.0192(2)
H26_2 H 0.287926 0.535109 0.032013
C33_2 C 0.2022(4) 0.4583(4) 0.0012(3)
C36_2 C 0.1176(4) 0.5035(3) 0.0008(3)
H29_2 H 0.122325 0.555244 0.001030
C34_2 C 0.2017(4) 0.3851(4) 0.9824(3)
H27_2 H 0.145845 0.362670 0.969465
C35_2 C 0.2842(5) 0.3480(4) 0.9834(3)
H28_2 H 0.283187 0.299320 0.970513
Co1_4 Co 0.49657(6) 0.68422(5) 0.00885(3)
O1_4 O 0.4508(3) 0.6162(3) 0.07394(17)
O2_4 O 0.3623(3) 0.7149(2) 0.05961(14)
O3_4 O 0.2510(3) 0.6180(3) 0.29122(18)
O5_2 O 0.4275(3) 0.3830(2) 0.45241(18)
O9_2 O 0.5741(4) 0.7509(3) 0.0704(2)
C1_4 C 0.3880(4) 0.6598(4) 0.0889(2)
C2_4 C 0.3509(4) 0.6489(3) 0.1417(2)
C3_4 C 0.3762(5) 0.5850(4) 0.1699(2)
H1_4 H 0.414493 0.549418 0.154798
C4_4 C 0.3450(5) 0.5743(4) 0.2198(3)
H2_4 H 0.362863 0.531777 0.239080
C5_4 C 0.2877(5) 0.6257(4) 0.2417(2)
C6_4 C 0.2616(5) 0.6886(3) 0.2141(2)
H3_4 H 0.222650 0.723683 0.229198
C7_4 C 0.2936(4) 0.6998(3) 0.1636(2)
H4_4 H 0.275728 0.742375 0.144481
C8_4 C 0.2772(5) 0.5580(4) 0.3243(2)
C9_4 C 0.3598(5) 0.5601(4) 0.3539(3)
H5_4 H 0.400859 0.600196 0.351210
C10_4 C 0.3818(5) 0.5031(4) 0.3876(3)
H6_4 H 0.439298 0.503407 0.407287
C11_4 C 0.3196(4) 0.4442(3) 0.3931(2)
C12_4 C 0.2377(5) 0.4441(4) 0.3637(3)
H7_4 H 0.195068 0.405288 0.367681
C13_4 C 0.2153(5) 0.5005(4) 0.3277(3)
H8_4 H 0.159469 0.499242 0.306425
C14_4 C 0.3448(5) 0.3836(3) 0.4335(2)
C25_2 C 0.7983(4) 0.6149(4) 0.0176(3)
H15_2 H 0.854155 0.637330 0.030535
C26_2 C 0.7158(5) 0.6520(4) 0.0166(3)
H16_2 H 0.716813 0.700680 0.029487
N3_2 N 0.5391(7) 0.8165(5) 0.1408(4)
C28_2 C 0.5424(8) 0.8021(6) 0.0878(5)
H18_2 H 0.516299 0.837302 0.064048
C29_4 C 0.4909(10) 0.8724(8) 0.1747(6)
H19_4 H 0.466092 0.912153 0.152472
H20_2 H 0.535564 0.892117 0.201213
H21_4 H 0.440120 0.848557 0.192144
C30_2 C 0.5755(11) 0.7572(7) 0.1824(6)
H22_2 H 0.551537 0.709014 0.171925
H23_2 H 0.554100 0.769784 0.217053
H24_2 H 0.643370 0.756247 0.183794
N1_2 N 0.6336(3) 0.6248(3) 0.99881(19)
N2_2 N 0.9635(5) 0.5276(4) 0.9999(3)
C22_2 C 0.6343(4) 0.5552(3) 0.9808(2)
H13_2 H 0.577774 0.533993 0.967836
C23_2 C 0.7149(4) 0.5136(4) 0.9808(2)
H14_2 H 0.712074 0.464891 0.967987
C24_2 C 0.7978(4) 0.5417(4) 0.9988(3)
C27_2 C 0.8824(4) 0.4965(3) 0.9992(3)
H17_2 H 0.877675 0.444756 0.998970
O12_4 O 0.4508(3) 0.3838(3) 0.57394(17)
O14_4 O 0.2510(3) 0.3820(3) 0.79122(18)
O15_4 O 0.2810(3) 0.6594(2) 0.94598(16)
O16_4 O 0.4275(3) 0.6170(2) 0.95241(18)
O17_2 O 0.5741(4) 0.2491(3) 0.5704(2)
C44_4 C 0.3880(4) 0.3402(4) 0.5889(2)
C45_4 C 0.3509(4) 0.3511(3) 0.6417(2)
C46_4 C 0.3762(5) 0.4150(4) 0.6699(2)
H34_4 H 0.414493 0.450582 0.654798
C47_4 C 0.3450(5) 0.4257(4) 0.7198(3)
H35_4 H 0.362863 0.468223 0.739080
C48_4 C 0.2877(5) 0.3743(4) 0.7417(2)
C49_4 C 0.2616(5) 0.3114(3) 0.7141(2)
H36_4 H 0.222650 0.276317 0.729198
C50_4 C 0.2936(4) 0.3002(3) 0.6636(2)
H37_4 H 0.275728 0.257625 0.644481
C51_4 C 0.2772(5) 0.4420(4) 0.8243(2)
C52_4 C 0.3598(5) 0.4399(4) 0.8539(3)
H38_4 H 0.400859 0.399804 0.851210
C53_4 C 0.3818(5) 0.4969(4) 0.8876(3)
H39_4 H 0.439298 0.496593 0.907287
C54_4 C 0.3196(4) 0.5558(3) 0.8931(2)
C55_4 C 0.2377(5) 0.5559(4) 0.8637(3)
H40_4 H 0.195068 0.594712 0.867681
C56_4 C 0.2153(5) 0.4995(4) 0.8277(3)
H41_4 H 0.159469 0.500758 0.806425
C57_4 C 0.3448(5) 0.6164(3) 0.9335(2)
N6_2 N 0.5391(7) 0.1835(5) 0.6408(4)
C58_2 C 0.5424(8) 0.1979(6) 0.5878(5)
H42_2 H 0.516299 0.162698 0.564048
C59_4 C 0.4909(10) 0.1276(8) 0.6747(6)
H43_4 H 0.466092 0.087847 0.652472
H44_2 H 0.535564 0.107883 0.701213
H45_4 H 0.440120 0.151443 0.692144
C60_2 C 0.5755(11) 0.2428(7) 0.6824(6)
H46_2 H 0.551537 0.290986 0.671925
H47_2 H 0.554100 0.230216 0.717053
H48_2 H 0.643370 0.243753 0.683794
O21_4 O 0.3446(3) 0.8217(2) 0.95965(15)
O23_4 O 0.4880(3) 0.7752(3) 0.95941(18)
O8_4 O 0.500000 0.9643(3) 0.750000
C15_3 C 0.5772(4) 0.8139(3) 0.5593(2)
C16_3 C 0.5579(4) 0.8544(3) 0.6105(2)
C17_3 C 0.6127(4) 0.9118(3) 0.6296(2)
H9_3 H 0.664059 0.926524 0.610383
C18_3 C 0.5948(5) 0.9490(4) 0.6765(2)
H10_3 H 0.631154 0.989663 0.688031
C19_3 C 0.5223(5) 0.9239(4) 0.7048(2)
C20_3 C 0.4688(5) 0.8637(4) 0.6881(3)
H11_3 H 0.421656 0.845519 0.709130
C21_3 C 0.4854(5) 0.8308(4) 0.6402(3)
H12_3 H 0.446935 0.791811 0.627731
C37_3 C 0.4228(4) 0.8139(3) 0.9407(2)
C38_3 C 0.4421(4) 0.8544(3) 0.8895(2)
C39_3 C 0.3873(4) 0.9118(3) 0.8704(2)
H30_3 H 0.335941 0.926524 0.889617
C40_3 C 0.4052(5) 0.9490(4) 0.8235(2)
H31_3 H 0.368846 0.989663 0.811969
C41_3 C 0.4777(5) 0.9239(4) 0.7952(2)
C42_3 C 0.5312(5) 0.8637(4) 0.8119(3)
H32_3 H 0.578344 0.845519 0.790870
C43_3 C 0.5146(5) 0.8308(4) 0.8598(3)
H33_3 H 0.553065 0.791811 0.872269
O8_5 O -0.000000 0.4643(3) 0.750000
C15_4 C 0.0772(4) 0.3139(3) 0.5593(2)
C16_4 C 0.0579(4) 0.3544(3) 0.6105(2)
C17_4 C 0.1127(4) 0.4118(3) 0.6296(2)
H9_4 H 0.164059 0.426524 0.610383
C18_4 C 0.0948(5) 0.4490(4) 0.6765(2)
H10_4 H 0.131154 0.489663 0.688031
C19_4 C 0.0223(5) 0.4239(4) 0.7048(2)
C42_4 C 0.0312(5) 0.3637(4) 0.8119(3)
H32_4 H 0.078344 0.345519 0.790870
C43_4 C 0.0146(5) 0.3308(4) 0.8598(3)
H33_4 H 0.053065 0.291811 0.872269
O8_6 O 1.000000 0.4643(3) 0.750000
C20_4 C 0.9688(5) 0.3637(4) 0.6881(3)
H11_4 H 0.921656 0.345519 0.709130
C21_4 C 0.9854(5) 0.3308(4) 0.6402(3)
H12_4 H 0.946935 0.291811 0.627731
C37_4 C 0.9228(4) 0.3139(3) 0.9407(2)
C38_4 C 0.9421(4) 0.3544(3) 0.8895(2)
C39_4 C 0.8873(4) 0.4118(3) 0.8704(2)
H30_4 H 0.835941 0.426524 0.889617
C40_4 C 0.9052(5) 0.4490(4) 0.8235(2)
H31_4 H 0.868846 0.489663 0.811969
C41_4 C 0.9777(5) 0.4239(4) 0.7952(2)
N1_3 N 0.8664(3) 0.1248(3) 0.50119(19)
N2_3 N 0.5365(5) 0.0276(4) 0.5001(3)
O9_3 O 0.9259(4) 0.2509(3) 0.4296(2)
C22_3 C 0.8657(4) 0.0552(3) 0.5192(2)
H13_3 H 0.922226 0.033993 0.532164
C23_3 C 0.7851(4) 0.0136(4) 0.5192(2)
C24_3 C 0.7022(4) 0.0417(4) 0.5012(3)
C25_3 C 0.7017(4) 0.1149(4) 0.4824(3)
H15_3 H 0.645845 0.137330 0.469465
C26_3 C 0.7842(5) 0.1520(4) 0.4834(3)
H16_3 H 0.783187 0.200680 0.470513
N3_3 N 0.9609(7) 0.3165(5) 0.3592(4)
C28_3 C 0.9576(8) 0.3021(6) 0.4122(5)
H18_3 H 0.983701 0.337302 0.435952
H20_3 H 0.964436 0.392117 0.298787
C30_3 C 0.9245(11) 0.2572(7) 0.3176(6)
H22_3 H 0.948463 0.209014 0.328075
H23_3 H 0.945900 0.269784 0.282947
H24_3 H 0.856630 0.256247 0.316206
H26_3 H 0.212074 0.035109 0.467987
C36_3 C 0.3824(4) 0.0035(3) 0.4992(3)
H29_3 H 0.377675 0.055244 0.498970
O9_4 O 0.0741(4) 0.2509(3) 0.0704(2)
C25_4 C 0.2983(4) 0.1149(4) 0.0176(3)
H15_4 H 0.354155 0.137330 0.030535
C26_4 C 0.2158(5) 0.1520(4) 0.0166(3)
H16_4 H 0.216813 0.200680 0.029487
N3_4 N 0.0391(7) 0.3165(5) 0.1408(4)
C28_4 C 0.0424(8) 0.3021(6) 0.0878(5)
H18_4 H 0.016299 0.337302 0.064048
H20_4 H 0.035564 0.392117 0.201213
C30_4 C 0.0755(11) 0.2572(7) 0.1824(6)
H22_4 H 0.051537 0.209014 0.171925
H23_4 H 0.054100 0.269784 0.217053
H24_4 H 0.143370 0.256247 0.183794
H26_4 H 0.787926 0.035109 0.032013
C36_4 C 0.6176(4) 0.0035(3) 0.0008(3)
H29_4 H 0.622325 0.055244 0.001030
N7_2 N 0.8664(3) 0.8752(3) 0.00119(19)
N5_3 N 0.5365(5) 0.9724(4) 0.0001(3)
C31_3 C 0.8657(4) 0.9448(3) 0.0192(2)
H25_3 H 0.922226 0.966007 0.032164
C32_3 C 0.7851(4) 0.9864(4) 0.0192(2)
C33_3 C 0.7022(4) 0.9583(4) 0.0012(3)
H14_3 H 0.787926 0.964891 0.532013
C27_3 C 0.6176(4) 0.9965(3) 0.5008(3)
H17_3 H 0.622325 0.944756 0.501030
N4_2 N 0.1336(3) 0.8752(3) 0.49881(19)
N5_4 N 0.4635(5) 0.9724(4) 0.4999(3)
C31_4 C 0.1343(4) 0.9448(3) 0.4808(2)
H25_4 H 0.077774 0.966007 0.467836
C32_4 C 0.2149(4) 0.9864(4) 0.4808(2)
C33_4 C 0.2978(4) 0.9583(4) 0.4988(3)
C34_3 C 0.2983(4) 0.8851(4) 0.5176(3)
H27_3 H 0.354155 0.862670 0.530535
C35_3 C 0.2158(5) 0.8480(4) 0.5166(3)
H28_3 H 0.216813 0.799320 0.529487
O17_3 O 0.9259(4) 0.7491(3) 0.9296(2)
N6_3 N 0.9609(7) 0.6835(5) 0.8592(4)
C58_3 C 0.9576(8) 0.6979(6) 0.9122(5)
H42_3 H 0.983701 0.662698 0.935952
H44_3 H 0.964436 0.607883 0.798787
C60_3 C 0.9245(11) 0.7428(7) 0.8176(6)
H46_3 H 0.948463 0.790986 0.828075
H47_3 H 0.945900 0.730216 0.782947
H48_3 H 0.856630 0.743753 0.816206
H14_4 H 0.212074 0.964891 0.967987
C27_4 C 0.3824(4) 0.9965(3) 0.9992(3)
H17_4 H 0.377675 0.944756 0.998970
C34_4 C 0.7017(4) 0.8851(4) 0.9824(3)
H27_4 H 0.645845 0.862670 0.969465
C35_4 C 0.7842(5) 0.8480(4) 0.9834(3)
H28_4 H 0.783187 0.799320 0.970513
O17_4 O 0.0741(4) 0.7491(3) 0.5704(2)
N6_4 N 0.0391(7) 0.6835(5) 0.6408(4)
C58_4 C 0.0424(8) 0.6979(6) 0.5878(5)
H42_4 H 0.016299 0.662698 0.564048
H44_4 H 0.035564 0.607883 0.701213
C60_4 C 0.0755(11) 0.7428(7) 0.6824(6)
H46_4 H 0.051537 0.790986 0.671925
H47_4 H 0.054100 0.730216 0.717053
H48_4 H 0.143370 0.743753 0.683794
N1_4 N 0.1336(3) 0.1248(3) 0.99881(19)
N2_4 N 0.4635(5) 0.0276(4) 0.9999(3)
C22_4 C 0.1343(4) 0.0552(3) 0.9808(2)
H13_4 H 0.077774 0.033993 0.967836
C23_4 C 0.2149(4) 0.0136(4) 0.9808(2)
C24_4 C 0.2978(4) 0.0417(4) 0.9988(3)
loop_
_geom_bond_atom_site_label_1
_geom_bond_atom_site_label_2
_geom_bond_site_symmetry_1
_geom_bond_site_symmetry_2
Co2 O2 1_555 1_555
O1 Co1 1_555 1_555
O2 Co1 1_555 1_555
O3 C5 1_555 1_555
O6 Co2 1_555 1_555
O7 C15 1_555 1_555
O8 C19 1_555 1_555
C1 O1 1_555 1_555
C2 C1 1_555 1_555
C3 C2 1_555 1_555
H1 C3 1_555 1_555
C4 C3 1_555 1_555
H2 C4 1_555 1_555
C5 C4 1_555 1_555
C6 C5 1_555 1_555
H3 C6 1_555 1_555
C7 C2 1_555 1_555
H4 C7 1_555 1_555
C8 O3 1_555 1_555
C9 C8 1_555 1_555
H5 C9 1_555 1_555
C10 C9 1_555 1_555
H6 C10 1_555 1_555
C13 C8 1_555 1_555
C15 O6 1_555 1_555
C16 C15 1_555 1_555
C17 C16 1_555 1_555
H9 C17 1_555 1_555
C18 C17 1_555 1_555
H10 C18 1_555 1_555
C19 C18 1_555 1_555
C20 C19 1_555 1_555
H11 C20 1_555 1_555
C21 C16 1_555 1_555
H12 C21 1_555 1_555
H19 C29 1_555 1_555
H21 C29 1_555 1_555
O10 C37 1_555 1_555
O11 C37 1_555 1_555
C37 C38 1_555 1_555
C38 C39 1_555 1_555
C39 H30 1_555 1_555
C40 C39 1_555 1_555
H31 C40 1_555 1_555
C41 O8 1_555 1_555
C42 C41 1_555 1_555
H32 C42 1_555 1_555
C43 C38 1_555 1_555
H33 C43 1_555 1_555
O15 Co2 1_555 1_555
O16 Co1 1_555 1_555
C55 C54 1_555 1_555
H40 C55 1_555 1_555
C57 O15 1_555 1_555
Co6 O7 1_555 1_555
Co8 O10 1_555 1_555
O18 Co2 1_555 1_555
O19 Co2 1_555 1_555
O21 Co2 1_555 1_555
O23 Co1 1_555 1_555
O2 C1 1_555 1_555
C6 C7 1_555 1_555
C20 C21 1_555 1_555
C40 C41 1_555 1_555
C42 C43 1_555 1_555
O16 C57 1_555 1_555
C54 C57 1_555 1_555
Co6 O18 1_555 1_555
O4 C14 1_555 1_555
O20 C14 1_555 1_555
C12 C11 1_555 1_555
H7 C12 1_555 1_555
C14 C11 1_555 1_555
Co3 O12 1_555 1_555
O12 C44 1_555 1_555
O13 Co3 1_555 1_555
O14 C48 1_555 1_555
C44 O13 1_555 1_555
C45 C44 1_555 1_555
C46 C45 1_555 1_555
H34 C46 1_555 1_555
C47 C46 1_555 1_555
H35 C47 1_555 1_555
C48 C47 1_555 1_555
C49 C48 1_555 1_555
H36 C49 1_555 1_555
C50 C45 1_555 1_555
H37 C50 1_555 1_555
C51 O14 1_555 1_555
C52 C51 1_555 1_555
H38 C52 1_555 1_555
C53 C52 1_555 1_555
H39 C53 1_555 1_555
C56 C51 1_555 1_555
H43 C59 1_555 1_555
H45 C59 1_555 1_555
Co10 O4 1_555 1_555
Co10_2 O13 1_555 1_555
C49 C50 1_555 1_555
Co8 O2_2 1_555 1_555
O1_2 Co1_2 1_555 1_555
O2_2 Co1_2 1_555 1_555
O3_2 C5_2 1_555 1_555
C1_2 O1_2 1_555 1_555
C2_2 C1_2 1_555 1_555
C3_2 C2_2 1_555 1_555
H1_2 C3_2 1_555 1_555
C4_2 C3_2 1_555 1_555
H2_2 C4_2 1_555 1_555
C5_2 C4_2 1_555 1_555
C6_2 C5_2 1_555 1_555
H3_2 C6_2 1_555 1_555
C7_2 C2_2 1_555 1_555
H4_2 C7_2 1_555 1_555
C8_2 O3_2 1_555 1_555
C9_2 C8_2 1_555 1_555
H5_2 C9_2 1_555 1_555
C10_2 C9_2 1_555 1_555
H6_2 C10_2 1_555 1_555
C13_2 C8_2 1_555 1_555
H19_2 C29_2 1_555 1_555
H21_2 C29_2 1_555 1_555
O19_2 Co8 1_555 1_555
O2_2 C1_2 1_555 1_555
C6_2 C7_2 1_555 1_555
O15_2 Co8_2 1_555 1_555
C55_2 C54_2 1_555 1_555
H40_2 C55_2 1_555 1_555
C57_2 O15_2 1_555 1_555
O18_2 Co8_2 1_555 1_555
O21_2 Co8_2 1_555 1_555
O16_2 C57_2 1_555 1_555
C54_2 C57_2 1_555 1_555
Co7 O18_2 1_555 1_555
O4_2 C14_2 1_555 1_555
O5 C14_2 1_555 1_555
C12_2 C11_2 1_555 1_555
H7_2 C12_2 1_555 1_555
C14_2 C11_2 1_555 1_555
Co4 O5 1_555 1_555
Co9 O4_2 1_555 1_555
Co4 O12_2 1_555 1_555
O12_2 C44_2 1_555 1_555
O13_2 Co4 1_555 1_555
O14_2 C48_2 1_555 1_555
C44_2 O13_2 1_555 1_555
C45_2 C44_2 1_555 1_555
C46_2 C45_2 1_555 1_555
H34_2 C46_2 1_555 1_555
C47_2 C46_2 1_555 1_555
H35_2 C47_2 1_555 1_555
C48_2 C47_2 1_555 1_555
C49_2 C48_2 1_555 1_555
H36_2 C49_2 1_555 1_555
C50_2 C45_2 1_555 1_555
H37_2 C50_2 1_555 1_555
C51_2 O14_2 1_555 1_555
C52_2 C51_2 1_555 1_555
H38_2 C52_2 1_555 1_555
C53_2 C52_2 1_555 1_555
H39_2 C53_2 1_555 1_555
C56_2 C51_2 1_555 1_555
H43_2 C59_2 1_555 1_555
H45_2 C59_2 1_555 1_555
Co9 O13_2 1_555 1_555
O22_2 Co4 1_555 1_555
C49_2 C50_2 1_555 1_555
H11_2 C20_2 1_555 1_555
H12_2 C21_2 1_555 1_555
O10_2 C37_2 1_555 1_555
O22 C37_2 1_555 1_555
C37_2 C38_2 1_555 1_555
C38_2 C39_2 1_555 1_555
C39_2 H30_2 1_555 1_555
C40_2 C39_2 1_555 1_555
H31_2 C40_2 1_555 1_555
C41_2 O8_2 1_555 1_555
Co10 O10_2 1_555 1_555
C20_2 C21_2 1_555 1_555
C40_2 C41_2 1_555 1_555
Co1_3 N1 1_555 1_555
Co9 O2_3 1_555 1_555
N1 C22 1_555 1_555
N2 C27 1_555 1_555
O1_3 Co1_3 1_555 1_555
O2_3 Co1_3 1_555 1_555
O3_3 C5_3 1_555 1_555
O19_2 C14_3 1_555 1_555
O20_2 C14_3 1_555 1_555
O6_2 Co9 1_555 1_555
O22_2 C15_2 1_555 1_555
O8_3 C19_2 1_555 1_555
O9 Co1_3 1_555 1_555
C1_3 O1_3 1_555 1_555
C2_3 C1_3 1_555 1_555
C3_3 C2_3 1_555 1_555
H1_3 C3_3 1_555 1_555
C4_3 C3_3 1_555 1_555
H2_3 C4_3 1_555 1_555
C5_3 C4_3 1_555 1_555
C6_3 C5_3 1_555 1_555
H3_3 C6_3 1_555 1_555
C7_3 C2_3 1_555 1_555
H4_3 C7_3 1_555 1_555
C8_3 O3_3 1_555 1_555
C9_3 C8_3 1_555 1_555
H5_3 C9_3 1_555 1_555
C10_3 C9_3 1_555 1_555
H6_3 C10_3 1_555 1_555
C11_3 C10_3 1_555 1_555
C12_3 C11_3 1_555 1_555
H7_3 C12_3 1_555 1_555
C13_3 C8_3 1_555 1_555
H8_3 C13_3 1_555 1_555
C14_3 C11_3 1_555 1_555
C15_2 O6_2 1_555 1_555
C16_2 C15_2 1_555 1_555
C17_2 C16_2 1_555 1_555
H9_2 C17_2 1_555 1_555
C18_2 C17_2 1_555 1_555
H10_2 C18_2 1_555 1_555
C19_2 C18_2 1_555 1_555
C22 H13 1_555 1_555
C23 C22 1_555 1_555
H14 C23 1_555 1_555
C24 C23 1_555 1_555
C25 C24 1_555 1_555
H15 C25 1_555 1_555
C26 N1 1_555 1_555
H16 C26 1_555 1_555
C27 C24 1_555 1_555
H17 C27 1_555 1_555
N3 C28 1_555 1_555
C28 O9 1_555 1_555
H18 C28 1_555 1_555
C29_3 N3 1_555 1_555
H19_3 C29_3 1_555 1_555
H20 C29_3 1_555 1_555
H21_3 C29_3 1_555 1_555
C30 N3 1_555 1_555
H22 C30 1_555 1_555
H23 C30 1_555 1_555
H24 C30 1_555 1_555
H32_2 C42_2 1_555 1_555
H33_2 C43_2 1_555 1_555
Co7 O12_3 1_555 1_555
O12_3 C44_3 1_555 1_555
O14_3 C48_3 1_555 1_555
O15_3 Co9 1_555 1_555
O16_3 Co1_3 1_555 1_555
O17 Co7 1_555 1_555
C44_3 O18_2 1_555 1_555
C45_3 C44_3 1_555 1_555
C46_3 C45_3 1_555 1_555
H34_3 C46_3 1_555 1_555
C47_3 C46_3 1_555 1_555
H35_3 C47_3 1_555 1_555
C48_3 C47_3 1_555 1_555
C49_3 C48_3 1_555 1_555
H36_3 C49_3 1_555 1_555
C50_3 C45_3 1_555 1_555
H37_3 C50_3 1_555 1_555
C51_3 O14_3 1_555 1_555
C52_3 C51_3 1_555 1_555
H38_3 C52_3 1_555 1_555
C53_3 C52_3 1_555 1_555
H39_3 C53_3 1_555 1_555
C54_3 C53_3 1_555 1_555
C55_3 C54_3 1_555 1_555
H40_3 C55_3 1_555 1_555
C56_3 C51_3 1_555 1_555
H41_3 C56_3 1_555 1_555
C57_3 O15_3 1_555 1_555
N6 C58 1_555 1_555
C58 O17 1_555 1_555
H42 C58 1_555 1_555
C59_3 N6 1_555 1_555
H43_3 C59_3 1_555 1_555
H44 C59_3 1_555 1_555
H45_3 C59_3 1_555 1_555
C60 N6 1_555 1_555
H46 C60 1_555 1_555
H47 C60 1_555 1_555
H48 C60 1_555 1_555
O21_3 Co9 1_555 1_555
O23_3 Co1_3 1_555 1_555
O2_3 C1_3 1_555 1_555
C6_3 C7_3 1_555 1_555
C12_3 C13_3 1_555 1_555
C25 C26 1_555 1_555
C42_2 C43_2 1_555 1_555
O16_3 C57_3 1_555 1_555
C49_3 C50_3 1_555 1_555
C54_3 C57_3 1_555 1_555
C55_3 C56_3 1_555 1_555
N4 C31 1_555 1_555
C31 H25 1_555 1_555
C32 C31 1_555 1_555
H26 C32 1_555 1_555
C33 C32 1_555 1_555
C34 C33 1_555 1_555
H27 C34 1_555 1_555
C35 N4 1_555 1_555
H28 C35 1_555 1_555
C36 N5 1_555 1_555
H29 C36 1_555 1_555
Co6 N4 1_555 1_555
C33 C36 1_555 1_555
C34 C35 1_555 1_555
N7 C31_2 1_555 1_555
C31_2 H25_2 1_555 1_555
C32_2 C31_2 1_555 1_555
H26_2 C32_2 1_555 1_555
C33_2 C32_2 1_555 1_555
C36_2 N5_2 1_555 1_555
H29_2 C36_2 1_555 1_555
C33_2 C36_2 1_555 1_555
H27_2 C34_2 1_555 1_555
H28_2 C35_2 1_555 1_555
C34_2 C35_2 1_555 1_555
Co10 O2_4 1_555 1_555
O1_4 Co1_4 1_555 1_555
O2_4 Co1_4 1_555 1_555
O3_4 C5_4 1_555 1_555
O19 C14_4 1_555 1_555
O5_2 C14_4 1_555 1_555
O9_2 Co1_4 1_555 1_555
C1_4 O1_4 1_555 1_555
C2_4 C1_4 1_555 1_555
C3_4 C2_4 1_555 1_555
H1_4 C3_4 1_555 1_555
C4_4 C3_4 1_555 1_555
H2_4 C4_4 1_555 1_555
C5_4 C4_4 1_555 1_555
C6_4 C5_4 1_555 1_555
H3_4 C6_4 1_555 1_555
C7_4 C2_4 1_555 1_555
H4_4 C7_4 1_555 1_555
C8_4 O3_4 1_555 1_555
C9_4 C8_4 1_555 1_555
H5_4 C9_4 1_555 1_555
C10_4 C9_4 1_555 1_555
H6_4 C10_4 1_555 1_555
C11_4 C10_4 1_555 1_555
C12_4 C11_4 1_555 1_555
H7_4 C12_4 1_555 1_555
C13_4 C8_4 1_555 1_555
H8_4 C13_4 1_555 1_555
C14_4 C11_4 1_555 1_555
H15_2 C25_2 1_555 1_555
H16_2 C26_2 1_555 1_555
N3_2 C28_2 1_555 1_555
C28_2 O9_2 1_555 1_555
H18_2 C28_2 1_555 1_555
C29_4 N3_2 1_555 1_555
H19_4 C29_4 1_555 1_555
H20_2 C29_4 1_555 1_555
H21_4 C29_4 1_555 1_555
C30_2 N3_2 1_555 1_555
H22_2 C30_2 1_555 1_555
H23_2 C30_2 1_555 1_555
H24_2 C30_2 1_555 1_555
Co6 O5_2 1_555 1_555
O2_4 C1_4 1_555 1_555
C6_4 C7_4 1_555 1_555
C12_4 C13_4 1_555 1_555
C25_2 C26_2 1_555 1_555
N1_2 C22_2 1_555 1_555
N2_2 C27_2 1_555 1_555
C22_2 H13_2 1_555 1_555
C23_2 C22_2 1_555 1_555
H14_2 C23_2 1_555 1_555
C24_2 C23_2 1_555 1_555
C27_2 C24_2 1_555 1_555
H17_2 C27_2 1_555 1_555
Co6 O12_4 1_555 1_555
O12_4 C44_4 1_555 1_555
O14_4 C48_4 1_555 1_555
O15_4 Co10_2 1_555 1_555
O17_2 Co6 1_555 1_555
C44_4 O18 1_555 1_555
C45_4 C44_4 1_555 1_555
C46_4 C45_4 1_555 1_555
H34_4 C46_4 1_555 1_555
C47_4 C46_4 1_555 1_555
H35_4 C47_4 1_555 1_555
C48_4 C47_4 1_555 1_555
C49_4 C48_4 1_555 1_555
H36_4 C49_4 1_555 1_555
C50_4 C45_4 1_555 1_555
H37_4 C50_4 1_555 1_555
C51_4 O14_4 1_555 1_555
C52_4 C51_4 1_555 1_555
H38_4 C52_4 1_555 1_555
C53_4 C52_4 1_555 1_555
H39_4 C53_4 1_555 1_555
C54_4 C53_4 1_555 1_555
C55_4 C54_4 1_555 1_555
H40_4 C55_4 1_555 1_555
C56_4 C51_4 1_555 1_555
H41_4 C56_4 1_555 1_555
C57_4 O15_4 1_555 1_555
N6_2 C58_2 1_555 1_555
C58_2 O17_2 1_555 1_555
H42_2 C58_2 1_555 1_555
C59_4 N6_2 1_555 1_555
H43_4 C59_4 1_555 1_555
H44_2 C59_4 1_555 1_555
H45_4 C59_4 1_555 1_555
C60_2 N6_2 1_555 1_555
H46_2 C60_2 1_555 1_555
H47_2 C60_2 1_555 1_555
H48_2 C60_2 1_555 1_555
O21_4 Co10_2 1_555 1_555
O16_4 C57_4 1_555 1_555
C49_4 C50_4 1_555 1_555
C54_4 C57_4 1_555 1_555
C55_4 C56_4 1_555 1_555
O23_3 C15_3 1_555 1_555
O8_4 C19_3 1_555 1_555
C15_3 O21_3 1_555 1_555
C16_3 C15_3 1_555 1_555
C17_3 C16_3 1_555 1_555
H9_3 C17_3 1_555 1_555
C18_3 C17_3 1_555 1_555
H10_3 C18_3 1_555 1_555
C19_3 C18_3 1_555 1_555
C20_3 C19_3 1_555 1_555
H11_3 C20_3 1_555 1_555
C21_3 C16_3 1_555 1_555
H12_3 C21_3 1_555 1_555
O21_4 C37_3 1_555 1_555
O23_4 C37_3 1_555 1_555
C37_3 C38_3 1_555 1_555
C38_3 C39_3 1_555 1_555
C39_3 H30_3 1_555 1_555
C40_3 C39_3 1_555 1_555
H31_3 C40_3 1_555 1_555
C41_3 O8_4 1_555 1_555
C42_3 C41_3 1_555 1_555
H32_3 C42_3 1_555 1_555
C43_3 C38_3 1_555 1_555
H33_3 C43_3 1_555 1_555
C20_3 C21_3 1_555 1_555
C40_3 C41_3 1_555 1_555
C42_3 C43_3 1_555 1_555
O23 C15_4 1_555 1_555
O8_5 C19_4 1_555 1_555
C15_4 O21 1_555 1_555
C16_4 C15_4 1_555 1_555
C17_4 C16_4 1_555 1_555
H9_4 C17_4 1_555 1_555
C18_4 C17_4 1_555 1_555
H10_4 C18_4 1_555 1_555
C19_4 C18_4 1_555 1_555
H32_4 C42_4 1_555 1_555
H33_4 C43_4 1_555 1_555
C42_4 C43_4 1_555 1_555
H11_4 C20_4 1_555 1_555
H12_4 C21_4 1_555 1_555
O21_2 C37_4 1_555 1_555
O23_2 C37_4 1_555 1_555
C37_4 C38_4 1_555 1_555
C38_4 C39_4 1_555 1_555
C39_4 H30_4 1_555 1_555
C40_4 C39_4 1_555 1_555
H31_4 C40_4 1_555 1_555
C41_4 O8_6 1_555 1_555
C20_4 C21_4 1_555 1_555
C40_4 C41_4 1_555 1_555
N1_3 C22_3 1_555 1_555
C22_3 H13_3 1_555 1_555
C23_3 C22_3 1_555 1_555
C24_3 C23_3 1_555 1_555
C25_3 C24_3 1_555 1_555
H15_3 C25_3 1_555 1_555
C26_3 N1_3 1_555 1_555
H16_3 C26_3 1_555 1_555
N3_3 C28_3 1_555 1_555
C28_3 O9_3 1_555 1_555
H18_3 C28_3 1_555 1_555
C30_3 N3_3 1_555 1_555
H22_3 C30_3 1_555 1_555
H23_3 C30_3 1_555 1_555
H24_3 C30_3 1_555 1_555
H29_3 C36_3 1_555 1_555
C25_3 C26_3 1_555 1_555
H15_4 C25_4 1_555 1_555
H16_4 C26_4 1_555 1_555
N3_4 C28_4 1_555 1_555
C28_4 O9_4 1_555 1_555
H18_4 C28_4 1_555 1_555
C30_4 N3_4 1_555 1_555
H22_4 C30_4 1_555 1_555
H23_4 C30_4 1_555 1_555
H24_4 C30_4 1_555 1_555
H29_4 C36_4 1_555 1_555
C25_4 C26_4 1_555 1_555
N7_2 C31_3 1_555 1_555
C31_3 H25_3 1_555 1_555
C32_3 C31_3 1_555 1_555
C33_3 C32_3 1_555 1_555
H17_3 C27_3 1_555 1_555
N4_2 C31_4 1_555 1_555
C31_4 H25_4 1_555 1_555
C32_4 C31_4 1_555 1_555
C33_4 C32_4 1_555 1_555
C34_3 C33_4 1_555 1_555
H27_3 C34_3 1_555 1_555
C35_3 N4_2 1_555 1_555
H28_3 C35_3 1_555 1_555
N6_3 C58_3 1_555 1_555
C58_3 O17_3 1_555 1_555
H42_3 C58_3 1_555 1_555
C60_3 N6_3 1_555 1_555
H46_3 C60_3 1_555 1_555
H47_3 C60_3 1_555 1_555
H48_3 C60_3 1_555 1_555
C34_3 C35_3 1_555 1_555
H17_4 C27_4 1_555 1_555
H27_4 C34_4 1_555 1_555
H28_4 C35_4 1_555 1_555
N6_4 C58_4 1_555 1_555
C58_4 O17_4 1_555 1_555
H42_4 C58_4 1_555 1_555
C60_4 N6_4 1_555 1_555
H46_4 C60_4 1_555 1_555
H47_4 C60_4 1_555 1_555
H48_4 C60_4 1_555 1_555
C34_4 C35_4 1_555 1_555
N1_4 C22_4 1_555 1_555
C22_4 H13_4 1_555 1_555
C23_4 C22_4 1_555 1_555
C24_4 C23_4 1_555 1_555

#END
