
###############################################################################
#
# This file contains modified crystal structure data generated from the
# MOF subset of the Cambridge Structural Database (CSD) v542 
# hosted by the Cambridge Crystallographic Data Centre (CCDC).
#
# This work is licensed under the Creative Commons
# Attribution-NonCommercial-ShareAlike 4.0 International License.
# To view a copy of this license, visit
# http://creativecommons.org/licenses/by-nc-sa/4.0/
# or send a letter to
# Creative Commons, PO Box 1866, Mountain View, CA 94042, USA.
#
# CIF created using the CSD Python API on 22 February 2021
# The structure has been converted into the P1 space group
# The structure has a 3D framework
# The original CSD entry RUHCUV is in the monoclinic crystal system
# The framework has been calculated to contain at least 10.0% void space
# The void calculation uses a probe of radius 1.32A, grid spacing 0.4
#
###############################################################################

data_RUHCUV
_chemical_formula_moiety         '(C336 H208 Eu16 O170 S24)n'
_symmetry_cell_setting           triclinic
_symmetry_space_group_name_H-M   'P 1'
_symmetry_Int_Tables_number      1
_space_group_name_Hall           'P 1'
loop_
_symmetry_equiv_pos_site_id
_symmetry_equiv_pos_as_xyz
1 x,y,z
_cell_length_a                   19.224(2)
_cell_length_b                   19.986(2)
_cell_length_c                   29.996(3)
_cell_angle_alpha                90
_cell_angle_beta                 103.25(2)
_cell_angle_gamma                90
_cell_volume                     11218
loop_
_atom_site_label
_atom_site_type_symbol
_atom_site_fract_x
_atom_site_fract_y
_atom_site_fract_z
C11 C 0.0150(2) 0.6948(2) 0.00779(16)
H5 H 0.0550 0.7219 0.0101
O3 O 0.02478(16) 0.80923(15) 0.06257(10)
Eu6 Eu 0.13755(2) 0.81909(2) 0.11204(2)
C9 C 0.9012(2) 0.6139(2) 0.00238(16)
C10 C 0.9056(2) 0.6698(2) 0.02889(15)
H4 H 0.8704 0.6798 0.0446
C12 C 0.9641(2) 0.7113(2) 0.03160(15)
C13 C 0.9709(2) 0.7739(2) 0.06031(14)
C40 C 0.7633(2) 0.2476(2) 0.00916(15)
C41 C 0.6995(3) 0.2771(3) 0.01151(16)
C42 C 0.8089(3) 0.2249(2) 0.04892(15)
H16 H 0.8525 0.2052 0.0482
C43 C 0.7879(3) 0.2324(3) 0.08927(16)
C44 C 0.7228(3) 0.2584(3) 0.09288(16)
C45 C 0.7144(3) 0.2586(3) 0.14078(16)
C46 C 0.7756(3) 0.2364(3) 0.17154(16)
C47 C 0.6644(3) 0.2754(3) 0.20640(16)
H17 H 0.6264 0.2898 0.2183
C48 C 0.7825(3) 0.2317(3) 0.21808(16)
H18 H 0.8240 0.2147 0.2370
C49 C 0.7262(2) 0.2528(2) 0.23575(15)
C50 C 0.7330(2) 0.2513(2) 0.28682(14)
C69 C 0.5512(2) 0.0959(2) 0.01749(16)
C70 C 0.5711(3) 0.0340(2) 0.04511(16)
C71 C 0.6326(2) 0.0047(2) 0.03747(17)
C72 C 0.5370(3) 0.0011(2) 0.07468(17)
H26 H 0.4953 0.0186 0.0808
O4 O 0.92088(18) 0.78580(16) 0.07869(11)
O15 O 0.68146(18) 0.26958(18) 0.30164(11)
O16 O 0.79258(18) 0.23258(19) 0.30987(11)
O34 O 0.8370(2) 0.5215(2) 0.03909(14)
O39 O 0.8623(2) 0.1471(2) 0.14906(13)
O40 O 0.8992(2) 0.2640(2) 0.15418(13)
O44 O 0.73277(19) 0.0781(2) 0.01453(15)
S4 S 0.84269(6) 0.21560(7) 0.14359(4)
C79 C 0.4963(3) 0.1410(2) 0.01347(17)
H47 H 0.4637 0.1355 0.0318
C82 C 0.6795(3) 0.2810(3) 0.05276(18)
H50 H 0.6353 0.2994 0.0534
C83 C 0.6582(3) 0.2771(3) 0.15940(18)
H51 H 0.6154 0.2908 0.1402
Eu7 Eu 0.86277(2) 0.18890(2) 0.37680(2)
Eu11 Eu 0.66229(2) 0.30228(2) 0.37499(2)
Eu13 Eu 0.83771(2) 0.80228(2) 0.12501(2)
Eu1 Eu 0.86245(2) 0.18091(2) 0.88796(2)
Eu2 Eu 0.66323(2) 0.30119(2) 0.86171(2)
C1 C 0.8374(2) 0.3497(2) 0.88991(15)
C2 C 0.8704(2) 0.4114(2) 0.91210(15)
C3 C 0.8337(2) 0.4494(2) 0.93834(16)
H1 H 0.7888 0.4364 0.9419
C4 C 0.9371(3) 0.4322(2) 0.90927(15)
H2 H 0.9632 0.4054 0.8937
C5 C 0.8658(2) 0.5061(2) 0.95861(16)
C6 C 0.9675(2) 0.4912(2) 0.92841(16)
C7 C 0.9307(2) 0.5301(2) 0.95310(14)
C8 C 0.9500(2) 0.5950(2) 0.97718(15)
C14 C 0.7412(2) 0.2400(2) 0.78707(15)
C15 C 0.7595(3) 0.2308(3) 0.74165(15)
C16 C 0.8240(3) 0.2036(3) 0.73945(16)
H6 H 0.8539 0.1872 0.7660
C17 C 0.7126(2) 0.2513(2) 0.70141(15)
H7 H 0.6679 0.2688 0.7017
C18 C 0.7347(2) 0.2445(2) 0.66140(15)
C19 C 0.8014(3) 0.2215(3) 0.65754(17)
C20 C 0.8099(3) 0.2222(3) 0.61021(16)
C21 C 0.7496(2) 0.2449(2) 0.57926(16)
C22 C 0.8600(3) 0.2080(3) 0.54463(17)
H8 H 0.8980 0.1941 0.5326
C23 C 0.7419(2) 0.2504(2) 0.53339(16)
H9 H 0.7000 0.2669 0.5147
C24 C 0.7989(3) 0.2307(2) 0.51546(15)
C25 C 0.7905(3) 0.2353(2) 0.46460(15)
C26 C 0.6868(2) 0.1326(2) 0.86011(15)
C27 C 0.6481(2) 0.0747(2) 0.83491(16)
C28 C 0.6803(2) 0.0356(2) 0.80730(16)
H10 H 0.7264 0.0449 0.8042
C29 C 0.5793(2) 0.0599(3) 0.83788(18)
H11 H 0.5568 0.0877 0.8551
C31 C 0.5429(3) 0.0054(3) 0.81623(18)
C39 C 0.7807(2) 0.2402(2) 0.96311(14)
H15 H 0.6698 0.2946 0.9852
C51 C 0.4904(2) 0.2744(2) 0.81032(15)
C52 C 0.4756(2) 0.2126(2) 0.78100(15)
C53 C 0.4162(2) 0.1740(2) 0.78063(17)
H19 H 0.3845 0.1850 0.7987
C54 C 0.5216(2) 0.1952(2) 0.75415(16)
H20 H 0.5620 0.2211 0.7547
C55 C 0.4055(2) 0.1189(2) 0.75277(16)
C56 C 0.4497(2) 0.0984(2) 0.72464(16)
C57 C 0.4225(2) 0.0373(2) 0.69831(16)
C58 C 0.3593(3) 0.0141(2) 0.70758(17)
C59 C 0.4502(3) 0.0014(3) 0.66720(17)
H21 H 0.4919 0.0155 0.6594
C64 C 0.5322(2) 0.2680(2) 0.92765(15)
C65 C 0.5371(2) 0.2062(2) 0.95725(16)
C66 C 0.5934(2) 0.1619(2) 0.95969(16)
H24 H 0.6268 0.1681 0.9421
C67 C 0.4874(2) 0.1945(2) 0.98335(16)
H25 H 0.4480 0.2226 0.9806
C68 C 0.5979(2) 0.1088(2) 0.98884(17)
O1 O 0.87640(18) 0.29884(16) 0.89365(11)
O2 O 0.77418(18) 0.35342(17) 0.86856(12)
O5 O 0.78502(18) 0.22100(17) 0.82171(11)
O6 O 0.68396(18) 0.26807(18) 0.78757(11)
O7 O 0.84211(18) 0.21865(18) 0.44913(11)
O8 O 0.73172(18) 0.25570(18) 0.44202(11)
O9 O 0.65060(18) 0.18446(17) 0.85989(12)
O10 O 0.75104(17) 0.12537(17) 0.87890(11)
O13 O 0.73880(19) 0.26554(18) 0.92968(11)
O14 O 0.83591(17) 0.20873(17) 0.96118(11)
O17 O 0.54927(17) 0.30294(16) 0.81306(11)
O18 O 0.44285(18) 0.29416(17) 0.82845(11)
O21 O 0.58264(18) 0.27884(18) 0.90958(12)
O22 O 0.47878(17) 0.30472(16) 0.92503(11)
O25 O 0.8701(2) 0.08760(18) 0.83714(13)
O26 O 0.88668(19) 0.08177(18) 0.93669(13)
O27 O 0.6573(2) 0.3993(2) 0.80713(14)
O28 O 0.6510(2) 0.40300(19) 0.90190(15)
O29 O 0.8608(2) 0.09115(19) 0.32871(14)
O30 O 0.8832(2) 0.0874(2) 0.42383(15)
O31 O 0.6666(2) 0.39554(18) 0.42624(13)
O32 O 0.6515(2) 0.4038(2) 0.32801(14)
O33 O 0.76448(19) 0.5848(2) 0.97469(16)
O35 O 0.62695(18) 0.2096(2) 0.59500(12)
O36 O 0.6562(2) 0.3282(2) 0.60076(13)
O41 O 0.2671(2) 0.0940(2) 0.73259(18)
O42 O 0.3448(2) 0.0271(2) 0.79224(15)
O43 O 0.6585(2) 0.0100(2) 0.95505(14)
S1 S 0.83170(6) 0.55577(6) 0.99641(5)
S2 S 0.68067(6) 0.26108(6) 0.60672(4)
S5 S 0.33430(7) 0.06276(6) 0.74967(5)
S6 S 0.66531(6) 0.04861(6) 0.99604(4)
C77 C 0.5082(3) 0.1391(2) 0.72617(17)
H45 H 0.5397 0.1286 0.7079
C81 C 0.8667(3) 0.2052(3) 0.59149(18)
H49 H 0.9097 0.1918 0.6105
C84 C 0.8456(3) 0.2000(4) 0.69874(18)
H52 H 0.8906 0.1829 0.6987
Eu10 Eu 0.36277(2) 0.31110(2) 0.87680(2)
O45 O 0.97522(16) 0.19077(15) 0.93743(10)
O46 O 0.57912(18) 0.28580(16) 0.42131(11)
O47 O 0.54730(17) 0.30298(16) 0.32475(11)
O48 O 0.94149(17) 0.20877(16) 0.84031(11)
O51 O 0.94285(18) 0.20584(17) 0.32845(11)
O52 O 0.63930(19) 0.18550(17) 0.36967(12)
O53 O 0.74671(19) 0.14615(18) 0.37057(12)
O54 O 0.97878(17) 0.19528(16) 0.42503(11)
O55 O 0.77777(18) 0.34239(18) 0.38205(12)
O56 O 0.88764(19) 0.30795(16) 0.38298(12)
C73 C 0.6623(3) 0.9469(2) 0.05857(17)
H27 H 0.7044 0.9297 0.0530
C74 C 0.5656(3) 0.9416(2) 0.09523(17)
H28 H 0.5416 0.9191 0.1144
C75 C 0.6278(2) 0.9154(2) 0.08813(16)
C76 C 0.6561(2) 0.8499(2) 0.10933(15)
O23 O 0.72223(18) 0.84239(18) 0.11795(12)
O24 O 0.61236(19) 0.80795(16) 0.11702(12)
Eu8 Eu 0.63723(2) 0.68890(2) 0.12320(2)
C30 C 0.6425(2) 0.9829(2) 0.78470(16)
H12 H 0.4969 0.9962 0.8194
C32 C 0.5750(2) 0.9642(2) 0.78973(16)
C33 C 0.5484(2) 0.9029(2) 0.76314(16)
C34 C 0.5947(2) 0.8815(2) 0.73666(16)
C35 C 0.5841(2) 0.8269(2) 0.70817(16)
H13 H 0.6175 0.8146 0.6917
C36 C 0.4740(2) 0.8102(2) 0.72973(16)
H14 H 0.4318 0.7862 0.7270
C37 C 0.5218(2) 0.7908(2) 0.70495(15)
C38 C 0.5093(2) 0.7279(2) 0.67683(14)
C60 C 0.3233(3) 0.9592(2) 0.68760(17)
H22 H 0.2803 0.9467 0.6944
C61 C 0.4154(3) 0.9441(2) 0.64756(18)
H23 H 0.4354 0.9194 0.6274
C62 C 0.3518(3) 0.9225(2) 0.65711(17)
C63 C 0.3185(3) 0.8586(2) 0.63728(15)
O11 O 0.45270(17) 0.69702(16) 0.67525(11)
O12 O 0.55851(17) 0.70877(16) 0.65969(11)
O19 O 0.36070(19) 0.81450(17) 0.63033(12)
O20 O 0.25329(19) 0.85385(18) 0.62943(12)
O37 O 0.7338(2) 0.8948(2) 0.76821(17)
O38 O 0.6761(3) 0.9655(2) 0.70499(16)
S3 S 0.67147(7) 0.93153(6) 0.74571(5)
C80 C 0.4871(3) 0.8650(2) 0.75900(17)
H48 H 0.4541 0.8764 0.7760
Eu5 Eu 0.63755(2) 0.68091(2) 0.61204(2)
Eu9 Eu 0.13723(2) 0.81110(2) 0.62320(2)
Eu14 Eu 0.33771(2) 0.69772(2) 0.62501(2)
H12_2 H 0.0031 0.4962 0.6806
C36_2 C 0.0260(2) 0.3102(2) 0.77027(16)
H14_2 H 0.0682 0.2862 0.7730
C51_2 C 0.0096(2) 0.7744(2) 0.68968(15)
C52_2 C 0.0244(2) 0.7126(2) 0.71900(15)
C53_2 C 0.0838(2) 0.6740(2) 0.71937(17)
H19_2 H 0.1155 0.6850 0.7013
C55_2 C 0.0945(2) 0.6189(2) 0.74723(16)
C56_2 C 0.0503(2) 0.5984(2) 0.77536(16)
C57_2 C 0.0775(2) 0.5373(2) 0.80169(16)
C58_2 C 0.1407(3) 0.5141(2) 0.79242(17)
C59_2 C 0.0498(3) 0.5014(3) 0.83280(17)
H21_2 H 0.0081 0.5155 0.8406
C60_2 C 0.1767(3) 0.4592(2) 0.81240(17)
H22_2 H 0.2197 0.4467 0.8056
C61_2 C 0.0846(3) 0.4441(2) 0.85244(18)
H23_2 H 0.0646 0.4194 0.8726
C62_2 C 0.1482(3) 0.4225(2) 0.84289(17)
C63_2 C 0.1815(3) 0.3586(2) 0.86272(15)
C67_2 C 0.0126(2) 0.6945(2) 0.51665(16)
H25_2 H 0.0520 0.7226 0.5194
H26_2 H 0.0047 0.5186 0.4192
O11_2 O 0.04730(17) 0.19702(16) 0.82475(11)
O18_2 O 0.05715(18) 0.79416(17) 0.67155(11)
O19_2 O 0.13930(19) 0.31450(17) 0.86967(12)
O20_2 O 0.24671(19) 0.35385(18) 0.87057(12)
O22_2 O 0.02122(17) 0.80472(16) 0.57497(11)
O41_2 O 0.2329(2) 0.5940(2) 0.76741(18)
O42_2 O 0.1552(2) 0.5271(2) 0.70776(15)
S5_2 S 0.16570(7) 0.56276(6) 0.75033(5)
C79_2 C 0.0037(3) 0.6410(2) 0.48653(17)
H47_2 H 0.0363 0.6355 0.4682
C80_2 C 0.0129(3) 0.3650(2) 0.74100(17)
H48_2 H 0.0459 0.3764 0.7240
Eu14_2 Eu 0.16229(2) 0.19772(2) 0.87499(2)
C5_2 C 0.6342(2) 0.0061(2) 0.54139(16)
H3 H 0.4878 0.0045 0.5753
C7_2 C 0.5693(2) 0.0301(2) 0.54690(14)
C8_2 C 0.5500(2) 0.0950(2) 0.52282(15)
C9_2 C 0.5988(2) 0.1139(2) 0.49762(16)
C10_2 C 0.5944(2) 0.1698(2) 0.47111(15)
H4_2 H 0.6296 0.1798 0.4554
C11_2 C 0.4850(2) 0.1948(2) 0.49221(16)
H5_2 H 0.4450 0.2219 0.4899
C12_2 C 0.5359(2) 0.2113(2) 0.46840(15)
C13_2 C 0.5291(2) 0.2739(2) 0.43969(14)
O3_2 O 0.47522(16) 0.30923(15) 0.43743(10)
O33_2 O 0.73552(19) 0.0848(2) 0.52531(16)
O34_2 O 0.6630(2) 0.0215(2) 0.46091(14)
S1_2 S 0.66830(6) 0.05577(6) 0.50359(5)
C78 C 0.4926(2) 0.1382(2) 0.51963(16)
H46 H 0.4584 0.1289 0.5363
Eu6_2 Eu 0.36245(2) 0.31909(2) 0.38796(2)
C25_2 C 0.7095(3) 0.7353(2) 0.03540(15)
O7_2 O 0.65789(18) 0.71865(18) 0.05087(11)
O8_2 O 0.76828(18) 0.75570(18) 0.05798(11)
O29_2 O 0.6392(2) 0.59115(19) 0.17129(14)
O30_2 O 0.6168(2) 0.5874(2) 0.07617(15)
O31_2 O 0.8334(2) 0.89554(18) 0.07376(13)
O32_2 O 0.8485(2) 0.9038(2) 0.17199(14)
O47_2 O 0.95270(17) 0.80298(16) 0.17525(11)
O49 O 0.81854(18) 0.76958(18) 0.19836(11)
O50 O 0.70742(18) 0.73258(19) 0.19013(11)
O51_2 O 0.55715(18) 0.70584(17) 0.17155(11)
O52_2 O 0.86070(19) 0.68550(17) 0.13033(12)
O53_2 O 0.75329(19) 0.64615(18) 0.12943(12)
O54_2 O 0.52122(17) 0.69528(16) 0.07497(11)
Eu2_2 Eu 0.83677(2) 0.80119(2) 0.63829(2)
C1_2 C 0.6626(2) 0.8497(2) 0.61009(15)
C2_2 C 0.6296(2) 0.9114(2) 0.58790(15)
C3_2 C 0.6663(2) 0.9494(2) 0.56166(16)
H1_2 H 0.7112 0.9364 0.5581
C4_2 C 0.5629(3) 0.9322(2) 0.59073(15)
H2_2 H 0.5368 0.9054 0.6063
C6_2 C 0.5325(2) 0.9912(2) 0.57159(16)
C14_2 C 0.7588(2) 0.7400(2) 0.71293(15)
C15_2 C 0.7405(3) 0.7308(3) 0.75835(15)
C16_2 C 0.6760(3) 0.7036(3) 0.76055(16)
H6_2 H 0.6461 0.6872 0.7340
C17_2 C 0.7874(2) 0.7513(2) 0.79859(15)
H7_2 H 0.8321 0.7688 0.7983
C18_2 C 0.7653(2) 0.7445(2) 0.83860(15)
C19_2 C 0.6986(3) 0.7215(3) 0.84246(17)
C20_2 C 0.6901(3) 0.7222(3) 0.88979(16)
C21_2 C 0.7504(2) 0.7449(2) 0.92074(16)
C22_2 C 0.6400(3) 0.7080(3) 0.95537(17)
H8_2 H 0.6020 0.6941 0.9674
C23_2 C 0.7581(2) 0.7504(2) 0.96661(16)
H9_2 H 0.8000 0.7669 0.9853
C24_2 C 0.7011(3) 0.7307(2) 0.98454(15)
C26_2 C 0.8132(2) 0.6326(2) 0.63989(15)
C27_2 C 0.8519(2) 0.5747(2) 0.66509(16)
C28_2 C 0.8197(2) 0.5356(2) 0.69270(16)
H10_2 H 0.7736 0.5449 0.6958
C29_2 C 0.9207(2) 0.5599(3) 0.66212(18)
H11_2 H 0.9432 0.5877 0.6449
C30_2 C 0.8575(2) 0.4829(2) 0.71530(16)
C31_2 C 0.9571(3) 0.5054(3) 0.68377(18)
C32_2 C 0.9250(2) 0.4642(2) 0.71027(16)
C33_2 C 0.9516(2) 0.4029(2) 0.73686(16)
C34_2 C 0.9053(2) 0.3815(2) 0.76334(16)
C35_2 C 0.9159(2) 0.3269(2) 0.79183(16)
H13_2 H 0.8825 0.3146 0.8083
C37_2 C 0.9782(2) 0.2908(2) 0.79505(15)
C38_2 C 0.9907(2) 0.2279(2) 0.82317(14)
C39_2 C 0.7193(2) 0.7402(2) 0.53689(14)
C40_2 C 0.7367(2) 0.7476(2) 0.49084(15)
C41_2 C 0.8005(3) 0.7771(3) 0.48849(16)
H15_2 H 0.8302 0.7946 0.5148
C42_2 C 0.6911(3) 0.7249(2) 0.45108(15)
H16_2 H 0.6475 0.7052 0.4518
C43_2 C 0.7121(3) 0.7324(3) 0.41073(16)
C44_2 C 0.7772(3) 0.7584(3) 0.40712(16)
C45_2 C 0.7856(3) 0.7586(3) 0.35922(16)
C46_2 C 0.7244(3) 0.7364(3) 0.32846(16)
C47_2 C 0.8356(3) 0.7754(3) 0.29360(16)
H17_2 H 0.8736 0.7898 0.2817
C48_2 C 0.7175(3) 0.7317(3) 0.28192(16)
H18_2 H 0.6760 0.7147 0.2630
C49_2 C 0.7738(2) 0.7528(2) 0.26425(15)
C50_2 C 0.7670(2) 0.7513(2) 0.21318(14)
C54_2 C 0.9784(2) 0.6952(2) 0.74585(16)
H20_2 H 0.9380 0.7211 0.7453
C64_2 C 0.9678(2) 0.7680(2) 0.57235(15)
C65_2 C 0.9629(2) 0.7062(2) 0.54275(16)
C66_2 C 0.9066(2) 0.6619(2) 0.54031(16)
H24_2 H 0.8732 0.6681 0.5579
C68_2 C 0.9021(2) 0.6088(2) 0.51116(17)
C69_2 C 0.9488(2) 0.5959(2) 0.48251(16)
C70_2 C 0.9289(3) 0.5340(2) 0.45489(16)
C71_2 C 0.8674(2) 0.5047(2) 0.46253(17)
C72_2 C 0.9630(3) 0.5011(2) 0.42532(17)
C73_2 C 0.8377(3) 0.4469(2) 0.44143(17)
H27_2 H 0.7956 0.4297 0.4470
C74_2 C 0.9344(3) 0.4416(2) 0.40477(17)
H28_2 H 0.9584 0.4191 0.3856
C75_2 C 0.8722(2) 0.4154(2) 0.41187(16)
C76_2 C 0.8439(2) 0.3499(2) 0.39067(15)
O1_2 O 0.62360(18) 0.79884(16) 0.60635(11)
O2_2 O 0.72582(18) 0.85342(17) 0.63144(12)
O5_2 O 0.71498(18) 0.72100(17) 0.67829(11)
O6_2 O 0.81604(18) 0.76807(18) 0.71243(11)
O9_2 O 0.84940(18) 0.68446(17) 0.64011(12)
O10_2 O 0.74896(17) 0.62537(17) 0.62110(11)
O13_2 O 0.76120(19) 0.76554(18) 0.57032(11)
O14_2 O 0.66409(17) 0.70873(17) 0.53882(11)
O17_2 O 0.95073(17) 0.80294(16) 0.68694(11)
O21_2 O 0.91736(18) 0.77884(18) 0.59042(12)
O25_2 O 0.6299(2) 0.58760(18) 0.66286(13)
O26_2 O 0.61332(19) 0.58177(18) 0.56331(13)
O27_2 O 0.8427(2) 0.8993(2) 0.69287(14)
O28_2 O 0.8490(2) 0.90300(19) 0.59810(15)
O35_2 O 0.87305(18) 0.7096(2) 0.90500(12)
O36_2 O 0.8438(2) 0.8282(2) 0.89924(13)
O37_2 O 0.7662(2) 0.3948(2) 0.73179(17)
O38_2 O 0.8239(3) 0.4655(2) 0.79501(16)
O39_2 O 0.6377(2) 0.6471(2) 0.35094(13)
O40_2 O 0.6008(2) 0.7640(2) 0.34582(13)
O43_2 O 0.8415(2) 0.5100(2) 0.54495(14)
O44_2 O 0.76723(19) 0.5781(2) 0.48547(15)
S2_2 S 0.81933(6) 0.76108(6) 0.89328(4)
S3_2 S 0.82853(7) 0.43153(6) 0.75429(5)
S4_2 S 0.65731(6) 0.71560(7) 0.35641(4)
S6_2 S 0.83469(6) 0.54861(6) 0.50396(4)
C77_2 C 0.9918(3) 0.6391(2) 0.77383(17)
H45_2 H 0.9603 0.6286 0.7921
C81_2 C 0.6333(3) 0.7052(3) 0.90851(18)
H49_2 H 0.5903 0.6918 0.8895
C82_2 C 0.8205(3) 0.7810(3) 0.44724(18)
H50_2 H 0.8647 0.7994 0.4466
C83_2 C 0.8418(3) 0.7771(3) 0.34060(18)
H51_2 H 0.8846 0.7908 0.3598
C84_2 C 0.6544(3) 0.7000(4) 0.80126(18)
H52_2 H 0.6094 0.6829 0.8013
O45_2 O 0.52478(16) 0.69077(15) 0.56257(10)
C30_3 C 0.3575(2) 0.0171(2) 0.21530(16)
H12_3 H 0.5031 0.0038 0.1806
C32_3 C 0.4250(2) 0.0358(2) 0.21027(16)
C33_3 C 0.4516(2) 0.0971(2) 0.23686(16)
C34_3 C 0.4053(2) 0.1185(2) 0.26334(16)
C35_3 C 0.4159(2) 0.1731(2) 0.29183(16)
H13_3 H 0.3825 0.1854 0.3083
C36_3 C 0.5260(2) 0.1898(2) 0.27027(16)
H14_3 H 0.5682 0.2138 0.2730
C37_3 C 0.4782(2) 0.2092(2) 0.29505(15)
C38_3 C 0.4907(2) 0.2721(2) 0.32317(14)
C60_3 C 0.6767(3) 0.0408(2) 0.31240(17)
H22_3 H 0.7197 0.0533 0.3056
C61_3 C 0.5846(3) 0.0559(2) 0.35244(18)
H23_3 H 0.5646 0.0806 0.3726
C62_3 C 0.6482(3) 0.0775(2) 0.34289(17)
C63_3 C 0.6815(3) 0.1414(2) 0.36272(15)
O12_2 O 0.44149(17) 0.29123(16) 0.34031(11)
O37_3 O 0.2662(2) 0.1052(2) 0.23179(17)
O38_3 O 0.3239(3) 0.0345(2) 0.29501(16)
S3_3 S 0.32853(7) 0.06847(6) 0.25429(5)
C80_3 C 0.5129(3) 0.1350(2) 0.24100(17)
H48_3 H 0.5459 0.1236 0.2240
C73_3 C 0.3377(3) 0.0531(2) 0.94143(17)
H27_3 H 0.2956 0.0703 0.9470
C74_3 C 0.4344(3) 0.0584(2) 0.90477(17)
H28_3 H 0.4584 0.0809 0.8856
C75_3 C 0.3722(2) 0.0846(2) 0.91187(16)
C76_3 C 0.3439(2) 0.1501(2) 0.89067(15)
O23_2 O 0.27777(18) 0.15761(18) 0.88205(12)
O24_2 O 0.38764(19) 0.19205(16) 0.88298(12)
Eu2_3 Eu 0.33677(2) 0.69881(2) 0.13829(2)
C1_3 C 0.1626(2) 0.6503(2) 0.11009(15)
C2_3 C 0.1296(2) 0.5886(2) 0.08790(15)
C3_3 C 0.1663(2) 0.5506(2) 0.06166(16)
H1_3 H 0.2112 0.5636 0.0581
C4_3 C 0.0629(3) 0.5678(2) 0.09073(15)
H2_3 H 0.0368 0.5946 0.1063
C5_3 C 0.1342(2) 0.4939(2) 0.04139(16)
C6_3 C 0.0325(2) 0.5088(2) 0.07159(16)
C7_3 C 0.0693(2) 0.4699(2) 0.04690(14)
C8_3 C 0.0500(2) 0.4050(2) 0.02282(15)
C14_3 C 0.2588(2) 0.7600(2) 0.21293(15)
C15_3 C 0.2405(3) 0.7692(3) 0.25835(15)
C16_3 C 0.1760(3) 0.7964(3) 0.26055(16)
H6_3 H 0.1461 0.8128 0.2340
C17_3 C 0.2874(2) 0.7487(2) 0.29859(15)
H7_3 H 0.3321 0.7312 0.2983
C18_3 C 0.2653(2) 0.7555(2) 0.33860(15)
C19_3 C 0.1986(3) 0.7785(3) 0.34246(17)
C20_3 C 0.1901(3) 0.7778(3) 0.38979(16)
C21_3 C 0.2504(2) 0.7551(2) 0.42074(16)
C22_3 C 0.1400(3) 0.7920(3) 0.45537(17)
H8_3 H 0.1020 0.8059 0.4674
C23_3 C 0.2581(2) 0.7496(2) 0.46661(16)
H9_3 H 0.3000 0.7331 0.4853
C24_3 C 0.2011(3) 0.7693(2) 0.48454(15)
C25_3 C 0.2095(3) 0.7647(2) 0.53540(15)
C26_3 C 0.3132(2) 0.8674(2) 0.13989(15)
C27_3 C 0.3519(2) 0.9253(2) 0.16509(16)
C28_3 C 0.3197(2) 0.9644(2) 0.19270(16)
H10_3 H 0.2736 0.9551 0.1958
C29_3 C 0.4207(2) 0.9401(3) 0.16212(18)
H11_3 H 0.4432 0.9123 0.1449
C31_3 C 0.4571(3) 0.9946(3) 0.18377(18)
C39_3 C 0.2193(2) 0.7598(2) 0.03689(14)
H15_3 H 0.3302 0.7054 0.0148
C51_3 C 0.5096(2) 0.7256(2) 0.18968(15)
C52_3 C 0.5244(2) 0.7874(2) 0.21900(15)
C53_3 C 0.5838(2) 0.8260(2) 0.21937(17)
H19_3 H 0.6155 0.8150 0.2013
C54_3 C 0.4784(2) 0.8048(2) 0.24585(16)
H20_3 H 0.4380 0.7789 0.2453
C55_3 C 0.5945(2) 0.8811(2) 0.24723(16)
C56_3 C 0.5503(2) 0.9016(2) 0.27536(16)
C57_3 C 0.5775(2) 0.9627(2) 0.30169(16)
C58_3 C 0.6407(3) 0.9859(2) 0.29242(17)
C59_3 C 0.5498(3) 0.9986(3) 0.33280(17)
H21_3 H 0.5081 0.9845 0.3406
C64_3 C 0.4678(2) 0.7320(2) 0.07235(15)
C65_3 C 0.4629(2) 0.7938(2) 0.04275(16)
C66_3 C 0.4066(2) 0.8381(2) 0.04031(16)
H24_3 H 0.3732 0.8319 0.0579
C67_3 C 0.5126(2) 0.8055(2) 0.01665(16)
H25_3 H 0.5520 0.7774 0.0194
C68_3 C 0.4021(2) 0.8912(2) 0.01116(17)
O1_3 O 0.12360(18) 0.70116(16) 0.10635(11)
O2_3 O 0.22582(18) 0.64658(17) 0.13144(12)
O5_3 O 0.21498(18) 0.77900(17) 0.17829(11)
O6_3 O 0.31604(18) 0.73193(18) 0.21243(11)
O7_3 O 0.15789(18) 0.78135(18) 0.55087(11)
O8_3 O 0.26828(18) 0.74430(18) 0.55798(11)
O9_3 O 0.34940(18) 0.81554(17) 0.14011(12)
O10_3 O 0.24896(17) 0.87463(17) 0.12110(11)
O13_3 O 0.26120(19) 0.73446(18) 0.07032(11)
O14_3 O 0.16409(17) 0.79127(17) 0.03882(11)
O17_3 O 0.45073(17) 0.69706(16) 0.18694(11)
O21_3 O 0.41736(18) 0.72116(18) 0.09042(12)
O25_3 O 0.1299(2) 0.91240(18) 0.16286(13)
O26_3 O 0.11332(19) 0.91823(18) 0.06331(13)
O27_3 O 0.3427(2) 0.6007(2) 0.19287(14)
O28_3 O 0.3490(2) 0.59700(19) 0.09810(15)
O29_3 O 0.1392(2) 0.90885(19) 0.67129(14)
O30_3 O 0.1168(2) 0.9126(2) 0.57617(15)
O31_3 O 0.3334(2) 0.60446(18) 0.57376(13)
O32_3 O 0.3485(2) 0.5962(2) 0.67199(14)
O33_3 O 0.23552(19) 0.4152(2) 0.02531(16)
O35_3 O 0.37305(18) 0.7904(2) 0.40500(12)
O36_3 O 0.3438(2) 0.6718(2) 0.39924(13)
O41_3 O 0.7329(2) 0.9060(2) 0.26741(18)
O42_3 O 0.6552(2) 0.9729(2) 0.20776(15)
O43_3 O 0.3415(2) 0.9900(2) 0.04495(14)
S1_3 S 0.16830(6) 0.44423(6) 0.00359(5)
S2_3 S 0.31933(6) 0.73892(6) 0.39328(4)
S5_3 S 0.66570(7) 0.93724(6) 0.25033(5)
S6_3 S 0.33469(6) 0.95139(6) 0.00396(4)
C77_3 C 0.4918(3) 0.8609(2) 0.27383(17)
H45_3 H 0.4603 0.8714 0.2921
C81_3 C 0.1333(3) 0.7948(3) 0.40851(18)
H49_3 H 0.0903 0.8082 0.3895
C84_3 C 0.1544(3) 0.8000(4) 0.30126(18)
H52_3 H 0.1094 0.8171 0.3013
O46_2 O 0.42088(18) 0.71420(16) 0.57869(11)
O48_2 O 0.05851(17) 0.79123(16) 0.15969(11)
O49_2 O 0.31854(18) 0.73042(18) 0.69836(11)
O50_2 O 0.20742(18) 0.76742(19) 0.69013(11)
O55_2 O 0.22223(18) 0.65761(18) 0.61795(12)
O56_2 O 0.11236(19) 0.69205(16) 0.61702(12)
C9_3 C 0.0988(2) 0.3861(2) 0.99762(16)
C10_3 C 0.0944(2) 0.3302(2) 0.97111(15)
H4_3 H 0.1296 0.3202 0.9554
C12_3 C 0.0359(2) 0.2887(2) 0.96840(15)
C13_3 C 0.0291(2) 0.2261(2) 0.93969(14)
C40_3 C 0.2367(2) 0.7524(2) 0.99084(15)
C41_3 C 0.3005(3) 0.7229(3) 0.98849(16)
C42_3 C 0.1911(3) 0.7751(2) 0.95108(15)
H16_3 H 0.1475 0.7948 0.9518
C43_3 C 0.2121(3) 0.7676(3) 0.91073(16)
C44_3 C 0.2772(3) 0.7416(3) 0.90712(16)
C45_3 C 0.2856(3) 0.7414(3) 0.85922(16)
C46_3 C 0.2244(3) 0.7636(3) 0.82846(16)
C47_3 C 0.3356(3) 0.7246(3) 0.79360(16)
H17_3 H 0.3736 0.7102 0.7817
C48_3 C 0.2175(3) 0.7683(3) 0.78192(16)
H18_3 H 0.1760 0.7853 0.7630
C49_3 C 0.2738(2) 0.7472(2) 0.76425(15)
C50_3 C 0.2670(2) 0.7487(2) 0.71318(14)
C69_3 C 0.4488(2) 0.9041(2) 0.98251(16)
C70_3 C 0.4289(3) 0.9660(2) 0.95489(16)
C71_3 C 0.3674(2) 0.9953(2) 0.96253(17)
C72_3 C 0.4630(3) 0.9989(2) 0.92532(17)
H26_3 H 0.5047 0.9814 0.9192
O4_2 O 0.07912(18) 0.21420(16) 0.92131(11)
O34_3 O 0.1630(2) 0.4785(2) 0.96091(14)
O39_3 O 0.1377(2) 0.8529(2) 0.85094(13)
O40_3 O 0.1008(2) 0.7360(2) 0.84582(13)
O44_3 O 0.26723(19) 0.9219(2) 0.98547(15)
S4_3 S 0.15731(6) 0.78440(7) 0.85641(4)
C79_3 C 0.5037(3) 0.8590(2) 0.98653(17)
H47_3 H 0.5363 0.8645 0.9682
C82_3 C 0.3205(3) 0.7190(3) 0.94724(18)
H50_3 H 0.3647 0.7006 0.9466
C83_3 C 0.3418(3) 0.7229(3) 0.84060(18)
H51_3 H 0.3846 0.7092 0.8598
C11_3 C 0.9850(2) 0.3052(2) 0.99221(16)
H5_3 H 0.9450 0.2781 0.9899
Eu2_4 Eu 0.16323(2) 0.19881(2) 0.36171(2)
C1_4 C 0.3374(2) 0.1503(2) 0.38991(15)
C2_4 C 0.3704(2) 0.0886(2) 0.41210(15)
C3_4 C 0.3337(2) 0.0506(2) 0.43834(16)
H1_4 H 0.2888 0.0636 0.4419
C4_4 C 0.4371(3) 0.0678(2) 0.40927(15)
H2_4 H 0.4632 0.0946 0.3937
C6_4 C 0.4675(2) 0.0088(2) 0.42841(16)
C14_4 C 0.2412(2) 0.2600(2) 0.28707(15)
C15_4 C 0.2595(3) 0.2692(3) 0.24165(15)
C16_4 C 0.3240(3) 0.2964(3) 0.23945(16)
H6_4 H 0.3539 0.3128 0.2660
C17_4 C 0.2126(2) 0.2487(2) 0.20141(15)
H7_4 H 0.1679 0.2312 0.2017
C18_4 C 0.2347(2) 0.2555(2) 0.16140(15)
C19_4 C 0.3014(3) 0.2785(3) 0.15754(17)
C20_4 C 0.3099(3) 0.2778(3) 0.11021(16)
C21_4 C 0.2496(2) 0.2551(2) 0.07926(16)
C22_4 C 0.3600(3) 0.2920(3) 0.04463(17)
H8_4 H 0.3980 0.3059 0.0326
C23_4 C 0.2419(2) 0.2496(2) 0.03339(16)
H9_4 H 0.2000 0.2331 0.0147
C24_4 C 0.2989(3) 0.2693(2) 0.01546(15)
C26_4 C 0.1868(2) 0.3674(2) 0.36011(15)
C27_4 C 0.1481(2) 0.4253(2) 0.33491(16)
C28_4 C 0.1803(2) 0.4644(2) 0.30730(16)
H10_4 H 0.2264 0.4551 0.3042
C29_4 C 0.0793(2) 0.4401(3) 0.33788(18)
H11_4 H 0.0568 0.4123 0.3551
C30_4 C 0.1425(2) 0.5171(2) 0.28470(16)
C31_4 C 0.0429(3) 0.4946(3) 0.31623(18)
C32_4 C 0.0750(2) 0.5358(2) 0.28973(16)
C33_4 C 0.0484(2) 0.5971(2) 0.26314(16)
C34_4 C 0.0947(2) 0.6185(2) 0.23666(16)
C35_4 C 0.0841(2) 0.6731(2) 0.20817(16)
H13_4 H 0.1175 0.6854 0.1917
C37_4 C 0.0218(2) 0.7092(2) 0.20495(15)
C38_4 C 0.0093(2) 0.7721(2) 0.17683(14)
C39_4 C 0.2807(2) 0.2598(2) 0.46311(14)
C40_4 C 0.2633(2) 0.2524(2) 0.50916(15)
C41_4 C 0.1995(3) 0.2229(3) 0.51151(16)
H15_4 H 0.1698 0.2054 0.4852
C42_4 C 0.3089(3) 0.2751(2) 0.54892(15)
H16_4 H 0.3525 0.2948 0.5482
C43_4 C 0.2879(3) 0.2676(3) 0.58927(16)
C44_4 C 0.2228(3) 0.2416(3) 0.59288(16)
C45_4 C 0.2144(3) 0.2414(3) 0.64078(16)
C46_4 C 0.2756(3) 0.2636(3) 0.67154(16)
C47_4 C 0.1644(3) 0.2246(3) 0.70640(16)
H17_4 H 0.1264 0.2102 0.7183
C48_4 C 0.2825(3) 0.2683(3) 0.71808(16)
H18_4 H 0.3240 0.2853 0.7370
C49_4 C 0.2262(2) 0.2472(2) 0.73575(15)
C50_4 C 0.2330(2) 0.2487(2) 0.78682(14)
C54_4 C 0.0216(2) 0.3048(2) 0.25415(16)
H20_4 H 0.0620 0.2789 0.2547
C64_4 C 0.0322(2) 0.2320(2) 0.42765(15)
C65_4 C 0.0371(2) 0.2938(2) 0.45725(16)
C66_4 C 0.0934(2) 0.3381(2) 0.45969(16)
H24_4 H 0.1268 0.3319 0.4421
C68_4 C 0.0979(2) 0.3912(2) 0.48884(17)
C69_4 C 0.0512(2) 0.4041(2) 0.51749(16)
C70_4 C 0.0711(3) 0.4660(2) 0.54511(16)
C71_4 C 0.1326(2) 0.4953(2) 0.53747(17)
C72_4 C 0.0370(3) 0.4989(2) 0.57468(17)
C73_4 C 0.1623(3) 0.5531(2) 0.55857(17)
H27_4 H 0.2044 0.5703 0.5530
C74_4 C 0.0656(3) 0.5584(2) 0.59523(17)
H28_4 H 0.0416 0.5809 0.6144
C75_4 C 0.1278(2) 0.5846(2) 0.58813(16)
C76_4 C 0.1561(2) 0.6501(2) 0.60933(15)
O1_4 O 0.37640(18) 0.20116(16) 0.39365(11)
O2_4 O 0.27418(18) 0.14658(17) 0.36856(12)
O5_4 O 0.28502(18) 0.27900(17) 0.32171(11)
O6_4 O 0.18396(18) 0.23193(18) 0.28757(11)
O9_4 O 0.15060(18) 0.31554(17) 0.35989(12)
O10_4 O 0.25104(17) 0.37463(17) 0.37890(11)
O13_4 O 0.23880(19) 0.23446(18) 0.42968(11)
O14_4 O 0.33591(17) 0.29127(17) 0.46118(11)
O15_2 O 0.18146(18) 0.23042(18) 0.80164(11)
O16_2 O 0.29258(18) 0.26742(19) 0.80987(11)
O17_4 O 0.04927(17) 0.19706(16) 0.31306(11)
O21_4 O 0.08264(18) 0.22116(18) 0.40958(12)
O25_4 O 0.3701(2) 0.41240(18) 0.33714(13)
O26_4 O 0.38668(19) 0.41823(18) 0.43669(13)
O27_4 O 0.1573(2) 0.1007(2) 0.30713(14)
O28_4 O 0.1510(2) 0.09700(19) 0.40190(15)
O35_4 O 0.12695(18) 0.2904(2) 0.09500(12)
O36_4 O 0.1562(2) 0.1718(2) 0.10076(13)
O37_4 O 0.2338(2) 0.6052(2) 0.26821(17)
O38_4 O 0.1761(3) 0.5345(2) 0.20499(16)
O39_4 O 0.3623(2) 0.3529(2) 0.64906(13)
O40_4 O 0.3992(2) 0.2360(2) 0.65418(13)
O43_4 O 0.1585(2) 0.4900(2) 0.45505(14)
O44_4 O 0.23277(19) 0.4219(2) 0.51453(15)
S2_4 S 0.18067(6) 0.23892(6) 0.10672(4)
S3_4 S 0.17147(7) 0.56847(6) 0.24571(5)
S4_4 S 0.34269(6) 0.28440(7) 0.64359(4)
S6_4 S 0.16531(6) 0.45139(6) 0.49604(4)
C77_4 C 0.0082(3) 0.3609(2) 0.22617(17)
H45_4 H 0.0397 0.3714 0.2079
C81_4 C 0.3667(3) 0.2948(3) 0.09149(18)
H49_4 H 0.4097 0.3082 0.1105
C82_4 C 0.1795(3) 0.2190(3) 0.55276(18)
H50_4 H 0.1353 0.2006 0.5534
C83_4 C 0.1582(3) 0.2229(3) 0.65940(18)
H51_4 H 0.1154 0.2092 0.6402
C84_4 C 0.3456(3) 0.3000(4) 0.19874(18)
H52_4 H 0.3906 0.3171 0.1987
C25_4 C 0.2905(3) 0.2647(2) 0.96460(15)
O7_4 O 0.34211(18) 0.28135(18) 0.94913(11)
O8_4 O 0.23172(18) 0.24430(18) 0.94202(11)
O29_4 O 0.3608(2) 0.40885(19) 0.82871(14)
O30_4 O 0.3832(2) 0.4126(2) 0.92383(15)
O31_4 O 0.1666(2) 0.10446(18) 0.92624(13)
O32_4 O 0.1515(2) 0.0962(2) 0.82801(14)
C5_4 C 0.3658(2) 0.9939(2) 0.45861(16)
H3_2 H 0.5122 0.9955 0.4247
C7_4 C 0.4307(2) 0.9699(2) 0.45310(14)
C8_4 C 0.4500(2) 0.9050(2) 0.47718(15)
C9_4 C 0.4012(2) 0.8861(2) 0.50238(16)
C10_4 C 0.4056(2) 0.8302(2) 0.52889(15)
H4_4 H 0.3704 0.8202 0.5446
C11_4 C 0.5150(2) 0.8052(2) 0.50779(16)
H5_4 H 0.5550 0.7781 0.5101
C12_4 C 0.4641(2) 0.7887(2) 0.53160(15)
C13_4 C 0.4709(2) 0.7261(2) 0.56031(14)
O33_4 O 0.26448(19) 0.9152(2) 0.47469(16)
O34_4 O 0.3370(2) 0.9785(2) 0.53909(14)
S1_4 S 0.33170(6) 0.94423(6) 0.49641(5)
C78_2 C 0.5074(2) 0.8618(2) 0.48037(16)
H46_2 H 0.5416 0.8711 0.4637
H12_4 H 0.9969 0.5038 0.3194
C36_4 C 0.9740(2) 0.6898(2) 0.22973(16)
H14_4 H 0.9318 0.7138 0.2270
C51_4 C 0.9904(2) 0.2256(2) 0.31032(15)
C52_4 C 0.9756(2) 0.2874(2) 0.28100(15)
C53_4 C 0.9162(2) 0.3260(2) 0.28063(17)
H19_4 H 0.8845 0.3150 0.2987
C55_4 C 0.9055(2) 0.3811(2) 0.25277(16)
C56_4 C 0.9497(2) 0.4016(2) 0.22464(16)
C57_4 C 0.9225(2) 0.4627(2) 0.19831(16)
C58_4 C 0.8593(3) 0.4859(2) 0.20758(17)
C59_4 C 0.9502(3) 0.4986(3) 0.16720(17)
H21_4 H 0.9919 0.4845 0.1594
C60_4 C 0.8233(3) 0.5408(2) 0.18760(17)
H22_4 H 0.7803 0.5533 0.1944
C61_4 C 0.9154(3) 0.5559(2) 0.14756(18)
H23_4 H 0.9354 0.5806 0.1274
C62_4 C 0.8518(3) 0.5775(2) 0.15711(17)
C63_4 C 0.8185(3) 0.6414(2) 0.13728(15)
C67_4 C 0.9874(2) 0.3055(2) 0.48335(16)
H25_4 H 0.9480 0.2774 0.4806
H26_4 H 0.9953 0.4814 0.5808
O41_4 O 0.7671(2) 0.4060(2) 0.23259(18)
O42_4 O 0.8448(2) 0.4729(2) 0.29224(15)
S5_4 S 0.83430(7) 0.43724(6) 0.24967(5)
C79_4 C 0.9963(3) 0.3590(2) 0.51347(17)
H47_4 H 0.9637 0.3645 0.5318
C80_4 C 0.9871(3) 0.6350(2) 0.25900(17)
H48_4 H 0.9541 0.6236 0.2760
H3_3 H 0.0122 0.5045 0.9247
C78_3 C 0.0074(2) 0.6382(2) 0.98037(16)
H46_3 H 0.0416 0.6289 0.9637
H3_4 H 0.9878 0.4955 0.0753
C78_4 C 0.9926(2) 0.3618(2) 0.01963(16)
H46_4 H 0.9584 0.3711 0.0363
loop_
_geom_bond_atom_site_label_1
_geom_bond_atom_site_label_2
_geom_bond_site_symmetry_1
_geom_bond_site_symmetry_2
C11 H5 1_555 1_555
Eu6 O3 1_555 1_555
C10 C9 1_555 1_555
H4 C10 1_555 1_555
C12 C10 1_555 1_555
C13 C12 1_555 1_555
C40 C41 1_555 1_555
C42 C40 1_555 1_555
H16 C42 1_555 1_555
C43 C42 1_555 1_555
C44 C43 1_555 1_555
C45 C44 1_555 1_555
C46 C45 1_555 1_555
C47 H17 1_555 1_555
C48 C46 1_555 1_555
H18 C48 1_555 1_555
C49 C47 1_555 1_555
C50 C49 1_555 1_555
C70 C69 1_555 1_555
C71 C70 1_555 1_555
C72 C70 1_555 1_555
H26 C72 1_555 1_555
O4 C13 1_555 1_555
O15 C50 1_555 1_555
O16 C50 1_555 1_555
O39 S4 1_555 1_555
O40 S4 1_555 1_555
S4 C43 1_555 1_555
H47 C79 1_555 1_555
C82 C41 1_555 1_555
H50 C82 1_555 1_555
C83 C45 1_555 1_555
H51 C83 1_555 1_555
Eu7 O16 1_555 1_555
Eu11 O15 1_555 1_555
Eu13 O4 1_555 1_555
C44 C82 1_555 1_555
C46 S4 1_555 1_555
C47 C83 1_555 1_555
C48 C49 1_555 1_555
C69 C79 1_555 1_555
Eu1 O1 1_555 1_555
Eu2 O2 1_555 1_555
Eu7 O7 1_555 1_555
Eu11 O8 1_555 1_555
C1 C2 1_555 1_555
C2 C3 1_555 1_555
C3 H1 1_555 1_555
C4 C2 1_555 1_555
H2 C4 1_555 1_555
C5 C3 1_555 1_555
C6 C4 1_555 1_555
C7 C5 1_555 1_555
C8 C7 1_555 1_555
C14 C15 1_555 1_555
C15 C16 1_555 1_555
C16 H6 1_555 1_555
C17 C15 1_555 1_555
H7 C17 1_555 1_555
C18 C17 1_555 1_555
C19 C18 1_555 1_555
C20 C19 1_555 1_555
C21 C20 1_555 1_555
C22 H8 1_555 1_555
C23 C21 1_555 1_555
H9 C23 1_555 1_555
C24 C22 1_555 1_555
C25 C24 1_555 1_555
C26 C27 1_555 1_555
C27 C28 1_555 1_555
C28 H10 1_555 1_555
C29 C27 1_555 1_555
H11 C29 1_555 1_555
C31 C29 1_555 1_555
C51 C52 1_555 1_555
C52 C53 1_555 1_555
C53 H19 1_555 1_555
C54 C52 1_555 1_555
H20 C54 1_555 1_555
C55 C53 1_555 1_555
C56 C55 1_555 1_555
C57 C56 1_555 1_555
C58 C57 1_555 1_555
C59 C57 1_555 1_555
H21 C59 1_555 1_555
C64 C65 1_555 1_555
C65 C66 1_555 1_555
C66 H24 1_555 1_555
C67 C65 1_555 1_555
H25 C67 1_555 1_555
C68 C66 1_555 1_555
O1 C1 1_555 1_555
O2 C1 1_555 1_555
O5 Eu1 1_555 1_555
O6 Eu2 1_555 1_555
O7 C25 1_555 1_555
O8 C25 1_555 1_555
O9 Eu2 1_555 1_555
O10 Eu1 1_555 1_555
O13 Eu2 1_555 1_555
O14 Eu1 1_555 1_555
O17 Eu2 1_555 1_555
O18 C51 1_555 1_555
O21 Eu2 1_555 1_555
O22 C64 1_555 1_555
O25 Eu1 1_555 1_555
O26 Eu1 1_555 1_555
O27 Eu2 1_555 1_555
O28 Eu2 1_555 1_555
O29 Eu7 1_555 1_555
O30 Eu7 1_555 1_555
O31 Eu11 1_555 1_555
O32 Eu11 1_555 1_555
O33 S1 1_555 1_555
O35 S2 1_555 1_555
O36 S2 1_555 1_555
O41 S5 1_555 1_555
O42 S5 1_555 1_555
O43 S6 1_555 1_555
S1 C5 1_555 1_555
S2 C18 1_555 1_555
S5 C55 1_555 1_555
S6 C68 1_555 1_555
C77 C54 1_555 1_555
H45 C77 1_555 1_555
C81 C20 1_555 1_555
H49 C81 1_555 1_555
C84 C16 1_555 1_555
H52 C84 1_555 1_555
Eu10 O18 1_555 1_555
O45 Eu1 1_555 1_555
O46 Eu11 1_555 1_555
O47 Eu11 1_555 1_555
O48 Eu1 1_555 1_555
O51 Eu7 1_555 1_555
O52 Eu11 1_555 1_555
O53 Eu7 1_555 1_555
O54 Eu7 1_555 1_555
O55 Eu11 1_555 1_555
O56 Eu7 1_555 1_555
C6 C7 1_555 1_555
C14 O5 1_555 1_555
C14 O6 1_555 1_555
C19 C84 1_555 1_555
C21 S2 1_555 1_555
C22 C81 1_555 1_555
C23 C24 1_555 1_555
C26 O9 1_555 1_555
C26 O10 1_555 1_555
C39 O13 1_555 1_555
C39 O14 1_555 1_555
C51 O17 1_555 1_555
C56 C77 1_555 1_555
C58 S5 1_555 1_555
C64 O21 1_555 1_555
O22 Eu10 1_555 1_555
H27 C73 1_555 1_555
H28 C74 1_555 1_555
C75 C73 1_555 1_555
C76 C75 1_555 1_555
O23 C76 1_555 1_555
O24 C76 1_555 1_555
Eu8 O24 1_555 1_555
Eu13 O23 1_555 1_555
C74 C75 1_555 1_555
C32 C30 1_555 1_555
C33 C32 1_555 1_555
C34 C33 1_555 1_555
C35 C34 1_555 1_555
H13 C35 1_555 1_555
C36 H14 1_555 1_555
C37 C35 1_555 1_555
C38 C37 1_555 1_555
H22 C60 1_555 1_555
H23 C61 1_555 1_555
C62 C60 1_555 1_555
C63 C62 1_555 1_555
O11 C38 1_555 1_555
O12 C38 1_555 1_555
O19 C63 1_555 1_555
O20 C63 1_555 1_555
O37 S3 1_555 1_555
O38 S3 1_555 1_555
S3 C30 1_555 1_555
C80 C33 1_555 1_555
H48 C80 1_555 1_555
Eu5 O12 1_555 1_555
Eu9 O20 1_555 1_555
Eu14 O11 1_555 1_555
C34 S3 1_555 1_555
C36 C37 1_555 1_555
C36 C80 1_555 1_555
C61 C62 1_555 1_555
O19 Eu14 1_555 1_555
C36_2 H14_2 1_555 1_555
C51_2 C52_2 1_555 1_555
C52_2 C53_2 1_555 1_555
C53_2 H19_2 1_555 1_555
C55_2 C53_2 1_555 1_555
C56_2 C55_2 1_555 1_555
C57_2 C56_2 1_555 1_555
C58_2 C57_2 1_555 1_555
C59_2 C57_2 1_555 1_555
H21_2 C59_2 1_555 1_555
C60_2 C58_2 1_555 1_555
H22_2 C60_2 1_555 1_555
C61_2 C59_2 1_555 1_555
H23_2 C61_2 1_555 1_555
C62_2 C60_2 1_555 1_555
C63_2 C62_2 1_555 1_555
H25_2 C67_2 1_555 1_555
O18_2 C51_2 1_555 1_555
O19_2 C63_2 1_555 1_555
O20_2 C63_2 1_555 1_555
O41_2 S5_2 1_555 1_555
O42_2 S5_2 1_555 1_555
S5_2 C55_2 1_555 1_555
C79_2 C67_2 1_555 1_555
H47_2 C79_2 1_555 1_555
H48_2 C80_2 1_555 1_555
Eu10 O20_2 1_555 1_555
Eu9 O18_2 1_555 1_555
Eu14_2 O11_2 1_555 1_555
C36_2 C80_2 1_555 1_555
C58_2 S5_2 1_555 1_555
C61_2 C62_2 1_555 1_555
O19_2 Eu14_2 1_555 1_555
O22_2 Eu9 1_555 1_555
C7_2 C5_2 1_555 1_555
C8_2 C7_2 1_555 1_555
C9_2 C8_2 1_555 1_555
C10_2 C9_2 1_555 1_555
H4_2 C10_2 1_555 1_555
C11_2 H5_2 1_555 1_555
C12_2 C10_2 1_555 1_555
C13_2 C12_2 1_555 1_555
O3_2 C13_2 1_555 1_555
O46 C13_2 1_555 1_555
O33_2 S1_2 1_555 1_555
O34_2 S1_2 1_555 1_555
S1_2 C5_2 1_555 1_555
C78 C8_2 1_555 1_555
H46 C78 1_555 1_555
Eu6_2 O3_2 1_555 1_555
C9_2 S1_2 1_555 1_555
C11_2 C12_2 1_555 1_555
C11_2 C78 1_555 1_555
Eu8 O7_2 1_555 1_555
Eu13 O8_2 1_555 1_555
O7_2 C25_2 1_555 1_555
O8_2 C25_2 1_555 1_555
O29_2 Eu8 1_555 1_555
O30_2 Eu8 1_555 1_555
O31_2 Eu13 1_555 1_555
O32_2 Eu13 1_555 1_555
O47_2 Eu13 1_555 1_555
O49 Eu13 1_555 1_555
O50 Eu8 1_555 1_555
O51_2 Eu8 1_555 1_555
O52_2 Eu13 1_555 1_555
O53_2 Eu8 1_555 1_555
O54_2 Eu8 1_555 1_555
Eu5 O1_2 1_555 1_555
Eu2_2 O2_2 1_555 1_555
C1_2 C2_2 1_555 1_555
C2_2 C3_2 1_555 1_555
C3_2 H1_2 1_555 1_555
C4_2 C2_2 1_555 1_555
H2_2 C4_2 1_555 1_555
C6_2 C4_2 1_555 1_555
C14_2 C15_2 1_555 1_555
C15_2 C16_2 1_555 1_555
C16_2 H6_2 1_555 1_555
C17_2 C15_2 1_555 1_555
H7_2 C17_2 1_555 1_555
C18_2 C17_2 1_555 1_555
C19_2 C18_2 1_555 1_555
C20_2 C19_2 1_555 1_555
C21_2 C20_2 1_555 1_555
C22_2 H8_2 1_555 1_555
C23_2 C21_2 1_555 1_555
H9_2 C23_2 1_555 1_555
C24_2 C22_2 1_555 1_555
C26_2 C27_2 1_555 1_555
C27_2 C28_2 1_555 1_555
C28_2 H10_2 1_555 1_555
C29_2 C27_2 1_555 1_555
H11_2 C29_2 1_555 1_555
C30_2 C28_2 1_555 1_555
C31_2 C29_2 1_555 1_555
C32_2 C30_2 1_555 1_555
C33_2 C32_2 1_555 1_555
C34_2 C33_2 1_555 1_555
C35_2 C34_2 1_555 1_555
H13_2 C35_2 1_555 1_555
C37_2 C35_2 1_555 1_555
C38_2 C37_2 1_555 1_555
C39_2 C40_2 1_555 1_555
C40_2 C41_2 1_555 1_555
C41_2 H15_2 1_555 1_555
C42_2 C40_2 1_555 1_555
H16_2 C42_2 1_555 1_555
C43_2 C42_2 1_555 1_555
C44_2 C43_2 1_555 1_555
C45_2 C44_2 1_555 1_555
C46_2 C45_2 1_555 1_555
C47_2 H17_2 1_555 1_555
C48_2 C46_2 1_555 1_555
H18_2 C48_2 1_555 1_555
C49_2 C47_2 1_555 1_555
C50_2 C49_2 1_555 1_555
H20_2 C54_2 1_555 1_555
C64_2 C65_2 1_555 1_555
C65_2 C66_2 1_555 1_555
C66_2 H24_2 1_555 1_555
C68_2 C66_2 1_555 1_555
C69_2 C68_2 1_555 1_555
C70_2 C69_2 1_555 1_555
C71_2 C70_2 1_555 1_555
C72_2 C70_2 1_555 1_555
C73_2 C71_2 1_555 1_555
H27_2 C73_2 1_555 1_555
C74_2 C72_2 1_555 1_555
H28_2 C74_2 1_555 1_555
C75_2 C73_2 1_555 1_555
C76_2 C75_2 1_555 1_555
O1_2 C1_2 1_555 1_555
O2_2 C1_2 1_555 1_555
O5_2 Eu5 1_555 1_555
O6_2 Eu2_2 1_555 1_555
O9_2 Eu2_2 1_555 1_555
O10_2 Eu5 1_555 1_555
O48 C38_2 1_555 1_555
O13_2 Eu2_2 1_555 1_555
O14_2 Eu5 1_555 1_555
O49 C50_2 1_555 1_555
O50 C50_2 1_555 1_555
O17_2 Eu2_2 1_555 1_555
O21_2 Eu2_2 1_555 1_555
O55 C76_2 1_555 1_555
O56 C76_2 1_555 1_555
O25_2 Eu5 1_555 1_555
O26_2 Eu5 1_555 1_555
O27_2 Eu2_2 1_555 1_555
O28_2 Eu2_2 1_555 1_555
O35_2 S2_2 1_555 1_555
O36_2 S2_2 1_555 1_555
O37_2 S3_2 1_555 1_555
O38_2 S3_2 1_555 1_555
O39_2 S4_2 1_555 1_555
O40_2 S4_2 1_555 1_555
O43_2 S6_2 1_555 1_555
O44_2 S6_2 1_555 1_555
S2_2 C18_2 1_555 1_555
S3_2 C30_2 1_555 1_555
S4_2 C43_2 1_555 1_555
S6_2 C68_2 1_555 1_555
C77_2 C54_2 1_555 1_555
H45_2 C77_2 1_555 1_555
C81_2 C20_2 1_555 1_555
H49_2 C81_2 1_555 1_555
C82_2 C41_2 1_555 1_555
H50_2 C82_2 1_555 1_555
C83_2 C45_2 1_555 1_555
H51_2 C83_2 1_555 1_555
C84_2 C16_2 1_555 1_555
H52_2 C84_2 1_555 1_555
O45_2 Eu5 1_555 1_555
C14_2 O5_2 1_555 1_555
C14_2 O6_2 1_555 1_555
C19_2 C84_2 1_555 1_555
C21_2 S2_2 1_555 1_555
C22_2 C81_2 1_555 1_555
C23_2 C24_2 1_555 1_555
C26_2 O9_2 1_555 1_555
C26_2 O10_2 1_555 1_555
C31_2 C32_2 1_555 1_555
C34_2 S3_2 1_555 1_555
C39_2 O13_2 1_555 1_555
C39_2 O14_2 1_555 1_555
C44_2 C82_2 1_555 1_555
C46_2 S4_2 1_555 1_555
C47_2 C83_2 1_555 1_555
C48_2 C49_2 1_555 1_555
C64_2 O21_2 1_555 1_555
C71_2 S6_2 1_555 1_555
C74_2 C75_2 1_555 1_555
C32_3 C30_3 1_555 1_555
C33_3 C32_3 1_555 1_555
C34_3 C33_3 1_555 1_555
C35_3 C34_3 1_555 1_555
H13_3 C35_3 1_555 1_555
C36_3 H14_3 1_555 1_555
C37_3 C35_3 1_555 1_555
C38_3 C37_3 1_555 1_555
H22_3 C60_3 1_555 1_555
H23_3 C61_3 1_555 1_555
C62_3 C60_3 1_555 1_555
C63_3 C62_3 1_555 1_555
O47 C38_3 1_555 1_555
O12_2 C38_3 1_555 1_555
O52 C63_3 1_555 1_555
O53 C63_3 1_555 1_555
O37_3 S3_3 1_555 1_555
O38_3 S3_3 1_555 1_555
S3_3 C30_3 1_555 1_555
C80_3 C33_3 1_555 1_555
H48_3 C80_3 1_555 1_555
Eu6_2 O12_2 1_555 1_555
C34_3 S3_3 1_555 1_555
C36_3 C37_3 1_555 1_555
C36_3 C80_3 1_555 1_555
C61_3 C62_3 1_555 1_555
H27_3 C73_3 1_555 1_555
H28_3 C74_3 1_555 1_555
C75_3 C73_3 1_555 1_555
C76_3 C75_3 1_555 1_555
O23_2 C76_3 1_555 1_555
O24_2 C76_3 1_555 1_555
Eu10 O24_2 1_555 1_555
Eu14_2 O23_2 1_555 1_555
C74_3 C75_3 1_555 1_555
Eu6 O1_3 1_555 1_555
Eu2_3 O2_3 1_555 1_555
Eu9 O7_3 1_555 1_555
Eu14 O8_3 1_555 1_555
C1_3 C2_3 1_555 1_555
C2_3 C3_3 1_555 1_555
C3_3 H1_3 1_555 1_555
C4_3 C2_3 1_555 1_555
H2_3 C4_3 1_555 1_555
C5_3 C3_3 1_555 1_555
C6_3 C4_3 1_555 1_555
C7_3 C5_3 1_555 1_555
C8_3 C7_3 1_555 1_555
C14_3 C15_3 1_555 1_555
C15_3 C16_3 1_555 1_555
C16_3 H6_3 1_555 1_555
C17_3 C15_3 1_555 1_555
H7_3 C17_3 1_555 1_555
C18_3 C17_3 1_555 1_555
C19_3 C18_3 1_555 1_555
C20_3 C19_3 1_555 1_555
C21_3 C20_3 1_555 1_555
C22_3 H8_3 1_555 1_555
C23_3 C21_3 1_555 1_555
H9_3 C23_3 1_555 1_555
C24_3 C22_3 1_555 1_555
C25_3 C24_3 1_555 1_555
C26_3 C27_3 1_555 1_555
C27_3 C28_3 1_555 1_555
C28_3 H10_3 1_555 1_555
C29_3 C27_3 1_555 1_555
H11_3 C29_3 1_555 1_555
C31_3 C29_3 1_555 1_555
C51_3 C52_3 1_555 1_555
C52_3 C53_3 1_555 1_555
C53_3 H19_3 1_555 1_555
C54_3 C52_3 1_555 1_555
H20_3 C54_3 1_555 1_555
C55_3 C53_3 1_555 1_555
C56_3 C55_3 1_555 1_555
C57_3 C56_3 1_555 1_555
C58_3 C57_3 1_555 1_555
C59_3 C57_3 1_555 1_555
H21_3 C59_3 1_555 1_555
C64_3 C65_3 1_555 1_555
C65_3 C66_3 1_555 1_555
C66_3 H24_3 1_555 1_555
C67_3 C65_3 1_555 1_555
H25_3 C67_3 1_555 1_555
C68_3 C66_3 1_555 1_555
O1_3 C1_3 1_555 1_555
O2_3 C1_3 1_555 1_555
O5_3 Eu6 1_555 1_555
O6_3 Eu2_3 1_555 1_555
O7_3 C25_3 1_555 1_555
O8_3 C25_3 1_555 1_555
O9_3 Eu2_3 1_555 1_555
O10_3 Eu6 1_555 1_555
O13_3 Eu2_3 1_555 1_555
O14_3 Eu6 1_555 1_555
O17_3 Eu2_3 1_555 1_555
O51_2 C51_3 1_555 1_555
O21_3 Eu2_3 1_555 1_555
O54_2 C64_3 1_555 1_555
O25_3 Eu6 1_555 1_555
O26_3 Eu6 1_555 1_555
O27_3 Eu2_3 1_555 1_555
O28_3 Eu2_3 1_555 1_555
O29_3 Eu9 1_555 1_555
O30_3 Eu9 1_555 1_555
O31_3 Eu14 1_555 1_555
O32_3 Eu14 1_555 1_555
O33_3 S1_3 1_555 1_555
O35_3 S2_3 1_555 1_555
O36_3 S2_3 1_555 1_555
O41_3 S5_3 1_555 1_555
O42_3 S5_3 1_555 1_555
O43_3 S6_3 1_555 1_555
S1_3 C5_3 1_555 1_555
S2_3 C18_3 1_555 1_555
S5_3 C55_3 1_555 1_555
S6_3 C68_3 1_555 1_555
C77_3 C54_3 1_555 1_555
H45_3 C77_3 1_555 1_555
C81_3 C20_3 1_555 1_555
H49_3 C81_3 1_555 1_555
C84_3 C16_3 1_555 1_555
H52_3 C84_3 1_555 1_555
O46_2 Eu14 1_555 1_555
O48_2 Eu6 1_555 1_555
O49_2 Eu14 1_555 1_555
O50_2 Eu9 1_555 1_555
O55_2 Eu14 1_555 1_555
O56_2 Eu9 1_555 1_555
C6_3 C7_3 1_555 1_555
C14_3 O5_3 1_555 1_555
C14_3 O6_3 1_555 1_555
C19_3 C84_3 1_555 1_555
C21_3 S2_3 1_555 1_555
C22_3 C81_3 1_555 1_555
C23_3 C24_3 1_555 1_555
C26_3 O9_3 1_555 1_555
C26_3 O10_3 1_555 1_555
C39_3 O13_3 1_555 1_555
C39_3 O14_3 1_555 1_555
C51_3 O17_3 1_555 1_555
C56_3 C77_3 1_555 1_555
C58_3 S5_3 1_555 1_555
C64_3 O21_3 1_555 1_555
C10_3 C9_3 1_555 1_555
H4_3 C10_3 1_555 1_555
C12_3 C10_3 1_555 1_555
C13_3 C12_3 1_555 1_555
C40_3 C41_3 1_555 1_555
C42_3 C40_3 1_555 1_555
H16_3 C42_3 1_555 1_555
C43_3 C42_3 1_555 1_555
C44_3 C43_3 1_555 1_555
C45_3 C44_3 1_555 1_555
C46_3 C45_3 1_555 1_555
C47_3 H17_3 1_555 1_555
C48_3 C46_3 1_555 1_555
H18_3 C48_3 1_555 1_555
C49_3 C47_3 1_555 1_555
C50_3 C49_3 1_555 1_555
C70_3 C69_3 1_555 1_555
C71_3 C70_3 1_555 1_555
C72_3 C70_3 1_555 1_555
H26_3 C72_3 1_555 1_555
O4_2 C13_3 1_555 1_555
O49_2 C50_3 1_555 1_555
O50_2 C50_3 1_555 1_555
O39_3 S4_3 1_555 1_555
O40_3 S4_3 1_555 1_555
S4_3 C43_3 1_555 1_555
H47_3 C79_3 1_555 1_555
C82_3 C41_3 1_555 1_555
H50_3 C82_3 1_555 1_555
C83_3 C45_3 1_555 1_555
H51_3 C83_3 1_555 1_555
Eu14_2 O4_2 1_555 1_555
C44_3 C82_3 1_555 1_555
C46_3 S4_3 1_555 1_555
C47_3 C83_3 1_555 1_555
C48_3 C49_3 1_555 1_555
C69_3 C79_3 1_555 1_555
C11_3 H5_3 1_555 1_555
Eu6_2 O1_4 1_555 1_555
Eu2_4 O2_4 1_555 1_555
C1_4 C2_4 1_555 1_555
C2_4 C3_4 1_555 1_555
C3_4 H1_4 1_555 1_555
C4_4 C2_4 1_555 1_555
H2_4 C4_4 1_555 1_555
C6_4 C4_4 1_555 1_555
C14_4 C15_4 1_555 1_555
C15_4 C16_4 1_555 1_555
C16_4 H6_4 1_555 1_555
C17_4 C15_4 1_555 1_555
H7_4 C17_4 1_555 1_555
C18_4 C17_4 1_555 1_555
C19_4 C18_4 1_555 1_555
C20_4 C19_4 1_555 1_555
C21_4 C20_4 1_555 1_555
C22_4 H8_4 1_555 1_555
C23_4 C21_4 1_555 1_555
H9_4 C23_4 1_555 1_555
C24_4 C22_4 1_555 1_555
C26_4 C27_4 1_555 1_555
C27_4 C28_4 1_555 1_555
C28_4 H10_4 1_555 1_555
C29_4 C27_4 1_555 1_555
H11_4 C29_4 1_555 1_555
C30_4 C28_4 1_555 1_555
C31_4 C29_4 1_555 1_555
C32_4 C30_4 1_555 1_555
C33_4 C32_4 1_555 1_555
C34_4 C33_4 1_555 1_555
C35_4 C34_4 1_555 1_555
H13_4 C35_4 1_555 1_555
C37_4 C35_4 1_555 1_555
C38_4 C37_4 1_555 1_555
C39_4 C40_4 1_555 1_555
C40_4 C41_4 1_555 1_555
C41_4 H15_4 1_555 1_555
C42_4 C40_4 1_555 1_555
H16_4 C42_4 1_555 1_555
C43_4 C42_4 1_555 1_555
C44_4 C43_4 1_555 1_555
C45_4 C44_4 1_555 1_555
C46_4 C45_4 1_555 1_555
C47_4 H17_4 1_555 1_555
C48_4 C46_4 1_555 1_555
H18_4 C48_4 1_555 1_555
C49_4 C47_4 1_555 1_555
C50_4 C49_4 1_555 1_555
H20_4 C54_4 1_555 1_555
C64_4 C65_4 1_555 1_555
C65_4 C66_4 1_555 1_555
C66_4 H24_4 1_555 1_555
C68_4 C66_4 1_555 1_555
C69_4 C68_4 1_555 1_555
C70_4 C69_4 1_555 1_555
C71_4 C70_4 1_555 1_555
C72_4 C70_4 1_555 1_555
C73_4 C71_4 1_555 1_555
H27_4 C73_4 1_555 1_555
C74_4 C72_4 1_555 1_555
H28_4 C74_4 1_555 1_555
C75_4 C73_4 1_555 1_555
C76_4 C75_4 1_555 1_555
O1_4 C1_4 1_555 1_555
O2_4 C1_4 1_555 1_555
O5_4 Eu6_2 1_555 1_555
O6_4 Eu2_4 1_555 1_555
O9_4 Eu2_4 1_555 1_555
O10_4 Eu6_2 1_555 1_555
O48_2 C38_4 1_555 1_555
O13_4 Eu2_4 1_555 1_555
O14_4 Eu6_2 1_555 1_555
O15_2 C50_4 1_555 1_555
O16_2 C50_4 1_555 1_555
O17_4 Eu2_4 1_555 1_555
O21_4 Eu2_4 1_555 1_555
O55_2 C76_4 1_555 1_555
O56_2 C76_4 1_555 1_555
O25_4 Eu6_2 1_555 1_555
O26_4 Eu6_2 1_555 1_555
O27_4 Eu2_4 1_555 1_555
O28_4 Eu2_4 1_555 1_555
O35_4 S2_4 1_555 1_555
O36_4 S2_4 1_555 1_555
O37_4 S3_4 1_555 1_555
O38_4 S3_4 1_555 1_555
O39_4 S4_4 1_555 1_555
O40_4 S4_4 1_555 1_555
O43_4 S6_4 1_555 1_555
O44_4 S6_4 1_555 1_555
S2_4 C18_4 1_555 1_555
S3_4 C30_4 1_555 1_555
S4_4 C43_4 1_555 1_555
S6_4 C68_4 1_555 1_555
C77_4 C54_4 1_555 1_555
H45_4 C77_4 1_555 1_555
C81_4 C20_4 1_555 1_555
H49_4 C81_4 1_555 1_555
C82_4 C41_4 1_555 1_555
H50_4 C82_4 1_555 1_555
C83_4 C45_4 1_555 1_555
H51_4 C83_4 1_555 1_555
C84_4 C16_4 1_555 1_555
H52_4 C84_4 1_555 1_555
Eu10 O16_2 1_555 1_555
Eu14_2 O15_2 1_555 1_555
C14_4 O5_4 1_555 1_555
C14_4 O6_4 1_555 1_555
C19_4 C84_4 1_555 1_555
C21_4 S2_4 1_555 1_555
C22_4 C81_4 1_555 1_555
C23_4 C24_4 1_555 1_555
C26_4 O9_4 1_555 1_555
C26_4 O10_4 1_555 1_555
C31_4 C32_4 1_555 1_555
C34_4 S3_4 1_555 1_555
C39_4 O13_4 1_555 1_555
C39_4 O14_4 1_555 1_555
C44_4 C82_4 1_555 1_555
C46_4 S4_4 1_555 1_555
C47_4 C83_4 1_555 1_555
C48_4 C49_4 1_555 1_555
C64_4 O21_4 1_555 1_555
C71_4 S6_4 1_555 1_555
C74_4 C75_4 1_555 1_555
Eu10 O7_4 1_555 1_555
Eu14_2 O8_4 1_555 1_555
O7_4 C25_4 1_555 1_555
O8_4 C25_4 1_555 1_555
O29_4 Eu10 1_555 1_555
O30_4 Eu10 1_555 1_555
O31_4 Eu14_2 1_555 1_555
O32_4 Eu14_2 1_555 1_555
C7_4 C5_4 1_555 1_555
C8_4 C7_4 1_555 1_555
C9_4 C8_4 1_555 1_555
C10_4 C9_4 1_555 1_555
H4_4 C10_4 1_555 1_555
C11_4 H5_4 1_555 1_555
C12_4 C10_4 1_555 1_555
C13_4 C12_4 1_555 1_555
O45_2 C13_4 1_555 1_555
O46_2 C13_4 1_555 1_555
O33_4 S1_4 1_555 1_555
O34_4 S1_4 1_555 1_555
S1_4 C5_4 1_555 1_555
C78_2 C8_4 1_555 1_555
H46_2 C78_2 1_555 1_555
C9_4 S1_4 1_555 1_555
C11_4 C12_4 1_555 1_555
C11_4 C78_2 1_555 1_555
C36_4 H14_4 1_555 1_555
C51_4 C52_4 1_555 1_555
C52_4 C53_4 1_555 1_555
C53_4 H19_4 1_555 1_555
C55_4 C53_4 1_555 1_555
C56_4 C55_4 1_555 1_555
C57_4 C56_4 1_555 1_555
C58_4 C57_4 1_555 1_555
C59_4 C57_4 1_555 1_555
H21_4 C59_4 1_555 1_555
C60_4 C58_4 1_555 1_555
H22_4 C60_4 1_555 1_555
C61_4 C59_4 1_555 1_555
H23_4 C61_4 1_555 1_555
C62_4 C60_4 1_555 1_555
C63_4 C62_4 1_555 1_555
H25_4 C67_4 1_555 1_555
O51 C51_4 1_555 1_555
O52_2 C63_4 1_555 1_555
O53_2 C63_4 1_555 1_555
O41_4 S5_4 1_555 1_555
O42_4 S5_4 1_555 1_555
S5_4 C55_4 1_555 1_555
C79_4 C67_4 1_555 1_555
H47_4 C79_4 1_555 1_555
H48_4 C80_4 1_555 1_555
C36_4 C80_4 1_555 1_555
C58_4 S5_4 1_555 1_555
C61_4 C62_4 1_555 1_555
H46_3 C78_3 1_555 1_555
H46_4 C78_4 1_555 1_555

#END
