
###############################################################################
#
# This file contains modified crystal structure data generated from the
# MOF subset of the Cambridge Structural Database (CSD) v542 
# hosted by the Cambridge Crystallographic Data Centre (CCDC).
#
# This work is licensed under the Creative Commons
# Attribution-NonCommercial-ShareAlike 4.0 International License.
# To view a copy of this license, visit
# http://creativecommons.org/licenses/by-nc-sa/4.0/
# or send a letter to
# Creative Commons, PO Box 1866, Mountain View, CA 94042, USA.
#
# CIF created using the CSD Python API on 22 February 2021
# The structure has been converted into the P1 space group
# The structure has a 3D framework
# The original CSD entry SIYFEO is in the cubic crystal system
# The framework has been calculated to contain at least 10.0% void space
# The void calculation uses a probe of radius 1.32A, grid spacing 0.4
# The framework is charged, counterions have been retained in the structure
#
###############################################################################

data_SIYFEO
_chemical_formula_moiety         '(C216 H168 In24 N8 O176 5-)n'
_symmetry_cell_setting           triclinic
_symmetry_space_group_name_H-M   'P 1'
_symmetry_Int_Tables_number      1
_space_group_name_Hall           'P 1'
loop_
_symmetry_equiv_pos_site_id
_symmetry_equiv_pos_as_xyz
1 x,y,z
_cell_length_a                   22.5186(15)
_cell_length_b                   22.5186(15)
_cell_length_c                   22.5186(15)
_cell_angle_alpha                90
_cell_angle_beta                 90
_cell_angle_gamma                90
_cell_volume                     11418.9
loop_
_atom_site_label
_atom_site_type_symbol
_atom_site_fract_x
_atom_site_fract_y
_atom_site_fract_z
N1 N 0.0587(6) 0.0587(6) 0.0587(6)
O1 O 0.0151(5) 0.0953(6) 0.0694(6)
O2 O 0.0694(6) 0.0151(5) 0.0953(6)
O3 O 0.0953(6) 0.0694(6) 0.0151(5)
N1_2 N 0.9413(6) 0.9413(6) 0.0587(6)
O1_2 O 0.9849(5) 0.9047(6) 0.0694(6)
O2_2 O 0.9306(6) 0.9849(5) 0.0953(6)
O3_2 O 0.9047(6) 0.9306(6) 0.0151(5)
N1_3 N 0.9413(6) 0.0587(6) 0.9413(6)
O1_3 O 0.9849(5) 0.0953(6) 0.9306(6)
O2_3 O 0.9306(6) 0.0151(5) 0.9047(6)
O3_3 O 0.9047(6) 0.0694(6) 0.9849(5)
N1_4 N 0.0587(6) 0.9413(6) 0.9413(6)
O1_4 O 0.0151(5) 0.9047(6) 0.9306(6)
O2_4 O 0.0694(6) 0.9849(5) 0.9047(6)
O3_4 O 0.0953(6) 0.9306(6) 0.9849(5)
N1_5 N 0.5587(6) 0.5587(6) 0.5587(6)
O1_5 O 0.5953(6) 0.5151(5) 0.5694(6)
O2_5 O 0.5151(5) 0.5694(6) 0.5953(6)
O3_5 O 0.5694(6) 0.5953(6) 0.5151(5)
N1_6 N 0.4413(6) 0.4413(6) 0.5587(6)
O1_6 O 0.4047(6) 0.4849(5) 0.5694(6)
O2_6 O 0.4849(5) 0.4306(6) 0.5953(6)
O3_6 O 0.4306(6) 0.4047(6) 0.5151(5)
N1_7 N 0.5587(6) 0.4413(6) 0.4413(6)
O1_7 O 0.5953(6) 0.4849(5) 0.4306(6)
O2_7 O 0.5151(5) 0.4306(6) 0.4047(6)
O3_7 O 0.5694(6) 0.4047(6) 0.4849(5)
N1_8 N 0.4413(6) 0.5587(6) 0.4413(6)
O1_8 O 0.4047(6) 0.5151(5) 0.4306(6)
O2_8 O 0.4849(5) 0.5694(6) 0.4047(6)
O3_8 O 0.4306(6) 0.5953(6) 0.4849(5)
C1 C 0.1748(3) 0.2966(3) 0.0651(3)
C2 C 0.2023(3) 0.2859(3) 0.0104(3)
H1 H 0.242561 0.276919 0.008792
C5 C 0.0815(3) 0.3108(5) 0.0154(3)
C6 C 0.1158(3) 0.3097(4) 0.0673(3)
H3 H 0.098142 0.318023 0.103718
C7 C 0.2083(3) 0.2949(3) 0.1217(3)
C9 C 0.0172(3) 0.3185(4) 0.0241(3)
In1 In 0.32192(2) 0.26065(2) 0.19412(2)
O4 O 0.2600(2) 0.2746(2) 0.1217(2)
O5 O 0.1802(2) 0.3165(2) 0.16539(19)
O8 O 0.0005(6) 0.3375(10) 0.0731(6)
O9 O 0.2587(2) 0.2587(2) 0.2587(2)
O10 O 0.3874(2) 0.2615(3) 0.1272(2)
C19 C 0.0651(3) 0.1748(3) 0.2966(3)
C20 C 0.0104(3) 0.2023(3) 0.2859(3)
H11 H 0.008792 0.242561 0.276919
C23 C 0.0154(3) 0.0815(3) 0.3108(5)
C24 C 0.0673(3) 0.1158(3) 0.3097(4)
H13 H 0.103718 0.098142 0.318023
C25 C 0.1217(3) 0.2083(3) 0.2949(3)
C27 C 0.0241(3) 0.0172(3) 0.3185(4)
In3 In 0.19412(2) 0.32192(2) 0.26065(2)
O18 O 0.1217(2) 0.2600(2) 0.2746(2)
O19 O 0.16539(19) 0.1802(2) 0.3165(2)
O22 O 0.0731(6) 0.0005(6) 0.3375(10)
O23 O 0.1272(2) 0.3874(2) 0.2615(3)
In6 In 0.26065(2) 0.19412(2) 0.32192(2)
O41 O 0.2615(3) 0.1272(2) 0.3874(2)
O42 O 0.2746(2) 0.1217(2) 0.2600(2)
O44 O 0.3165(2) 0.16539(19) 0.1802(2)
O46 O 0.2436(2) 0.2526(2) 0.39677(19)
O48 O 0.2526(2) 0.39677(19) 0.2436(2)
O50 O 0.39677(19) 0.2436(2) 0.2526(2)
O53 O 0.2041(3) 0.3376(2) 0.3589(2)
O56 O 0.3376(2) 0.3589(2) 0.2041(3)
O57 O 0.3589(2) 0.2041(3) 0.3376(2)
C3 C 0.1690(3) 0.2886(3) 0.9583(3)
C4 C 0.1083(3) 0.3021(4) 0.9621(3)
H2 H 0.086021 0.305201 0.927494
C8 C 0.1955(3) 0.2808(3) 0.8987(3)
O6 O 0.2474(2) 0.2564(2) 0.89677(19)
O7 O 0.1624(2) 0.2959(3) 0.8589(2)
C39 C 0.0417(3) 0.1690(3) 0.7114(3)
C40 C 0.0379(3) 0.1083(3) 0.6979(4)
H22 H 0.072506 0.086021 0.694799
C44 C 0.1013(3) 0.1955(3) 0.7192(3)
O32 O 0.10323(19) 0.2474(2) 0.7436(2)
O33 O 0.1411(2) 0.1624(2) 0.7041(3)
In12 In 0.23935(2) 0.17808(2) 0.69412(2)
In17 In 0.17808(2) 0.30588(2) 0.76065(2)
In20 In 0.30588(2) 0.23935(2) 0.82192(2)
C30 C 0.0417(3) 0.8310(3) 0.2886(3)
C31 C 0.0379(3) 0.8917(3) 0.3021(4)
H17 H 0.072506 0.913979 0.305201
C35 C 0.1013(3) 0.8045(3) 0.2808(3)
O26 O 0.10323(19) 0.7526(2) 0.2564(2)
O27 O 0.1411(2) 0.8376(2) 0.2959(3)
In14 In 0.23935(2) 0.82192(2) 0.30588(2)
In16 In 0.17808(2) 0.69412(2) 0.23935(2)
C46 C 0.0651(3) 0.8252(3) 0.7034(3)
C47 C 0.0104(3) 0.7977(3) 0.7141(3)
H26 H 0.008792 0.757439 0.723081
C50 C 0.0154(3) 0.9185(3) 0.6892(5)
C51 C 0.0673(3) 0.8842(3) 0.6903(4)
H28 H 0.103718 0.901858 0.681977
C52 C 0.1217(3) 0.7917(3) 0.7051(3)
C54 C 0.0241(3) 0.9828(3) 0.6815(4)
O36 O 0.1217(2) 0.7400(2) 0.7254(2)
O37 O 0.16539(19) 0.8198(2) 0.6835(2)
O40 O 0.0731(6) 0.9995(6) 0.6625(10)
In7 In 0.19412(2) 0.67808(2) 0.73935(2)
In9 In 0.26065(2) 0.80588(2) 0.67808(2)
C12 C 0.8310(3) 0.2886(3) 0.0417(3)
C13 C 0.8917(3) 0.3021(4) 0.0379(3)
H7 H 0.913979 0.305201 0.072506
C17 C 0.8045(3) 0.2808(3) 0.1013(3)
O13 O 0.7526(2) 0.2564(2) 0.10323(19)
O14 O 0.8376(2) 0.2959(3) 0.1411(2)
C21 C 0.9583(3) 0.1690(3) 0.2886(3)
C22 C 0.9621(3) 0.1083(3) 0.3021(4)
H12 H 0.927494 0.086021 0.305201
C26 C 0.8987(3) 0.1955(3) 0.2808(3)
O20 O 0.89677(19) 0.2474(2) 0.2564(2)
O21 O 0.8589(2) 0.1624(2) 0.2959(3)
In13 In 0.76065(2) 0.17808(2) 0.30588(2)
In18 In 0.82192(2) 0.30588(2) 0.23935(2)
In19 In 0.69412(2) 0.23935(2) 0.17808(2)
C10 C 0.8252(3) 0.2966(3) 0.9349(3)
C11 C 0.7977(3) 0.2859(3) 0.9896(3)
H6 H 0.757439 0.276919 0.991208
C14 C 0.9185(3) 0.3108(5) 0.9846(3)
C15 C 0.8842(3) 0.3097(4) 0.9327(3)
H8 H 0.901858 0.318023 0.896282
C16 C 0.7917(3) 0.2949(3) 0.8783(3)
C18 C 0.9828(3) 0.3185(4) 0.9759(3)
O11 O 0.7400(2) 0.2746(2) 0.8783(2)
O12 O 0.8198(2) 0.3165(2) 0.83461(19)
O15 O 0.9995(6) 0.3375(10) 0.9269(6)
In2 In 0.67808(2) 0.26065(2) 0.80588(2)
O16 O 0.7413(2) 0.2587(2) 0.7413(2)
O17 O 0.6126(2) 0.2615(3) 0.8728(2)
C37 C 0.9349(3) 0.1748(3) 0.7034(3)
C38 C 0.9896(3) 0.2023(3) 0.7141(3)
H21 H 0.991208 0.242561 0.723081
C41 C 0.9846(3) 0.0815(3) 0.6892(5)
C42 C 0.9327(3) 0.1158(3) 0.6903(4)
H23 H 0.896282 0.098142 0.681977
C43 C 0.8783(3) 0.2083(3) 0.7051(3)
C45 C 0.9759(3) 0.0172(3) 0.6815(4)
In5 In 0.80588(2) 0.32192(2) 0.73935(2)
O30 O 0.8783(2) 0.2600(2) 0.7254(2)
O31 O 0.83461(19) 0.1802(2) 0.6835(2)
O34 O 0.9269(6) 0.0005(6) 0.6625(10)
O35 O 0.8728(2) 0.3874(2) 0.7385(3)
In8 In 0.73935(2) 0.19412(2) 0.67808(2)
O45 O 0.6835(2) 0.16539(19) 0.8198(2)
O47 O 0.7474(2) 0.39677(19) 0.7564(2)
O51 O 0.60323(19) 0.2436(2) 0.7474(2)
O54 O 0.7959(3) 0.3376(2) 0.6411(2)
O55 O 0.6624(2) 0.3589(2) 0.7959(3)
C28 C 0.9349(3) 0.8252(3) 0.2966(3)
C29 C 0.9896(3) 0.7977(3) 0.2859(3)
H16 H 0.991208 0.757439 0.276919
C32 C 0.9846(3) 0.9185(3) 0.3108(5)
C33 C 0.9327(3) 0.8842(3) 0.3097(4)
H18 H 0.896282 0.901858 0.318023
C34 C 0.8783(3) 0.7917(3) 0.2949(3)
C36 C 0.9759(3) 0.9828(3) 0.3185(4)
O24 O 0.8783(2) 0.7400(2) 0.2746(2)
O25 O 0.83461(19) 0.8198(2) 0.3165(2)
O28 O 0.9269(6) 0.9995(6) 0.3375(10)
In4 In 0.80588(2) 0.67808(2) 0.26065(2)
O29 O 0.8728(2) 0.6126(2) 0.2615(3)
In10 In 0.73935(2) 0.80588(2) 0.32192(2)
O43 O 0.8198(2) 0.6835(2) 0.16539(19)
O49 O 0.7474(2) 0.60323(19) 0.2436(2)
O52 O 0.7959(3) 0.6624(2) 0.3589(2)
O58 O 0.7413(2) 0.7413(2) 0.2587(2)
C48 C 0.9583(3) 0.8310(3) 0.7114(3)
C49 C 0.9621(3) 0.8917(3) 0.6979(4)
H27 H 0.927494 0.913979 0.694799
C53 C 0.8987(3) 0.8045(3) 0.7192(3)
O38 O 0.89677(19) 0.7526(2) 0.7436(2)
O39 O 0.8589(2) 0.8376(2) 0.7041(3)
In11 In 0.76065(2) 0.82192(2) 0.69412(2)
In15 In 0.82192(2) 0.69412(2) 0.76065(2)
C12_2 C 0.1690(3) 0.7114(3) 0.0417(3)
C13_2 C 0.1083(3) 0.6979(4) 0.0379(3)
H7_2 H 0.086021 0.694799 0.072506
C17_2 C 0.1955(3) 0.7192(3) 0.1013(3)
O13_2 O 0.2474(2) 0.7436(2) 0.10323(19)
O14_2 O 0.1624(2) 0.7041(3) 0.1411(2)
In19_2 In 0.30588(2) 0.76065(2) 0.17808(2)
C10_2 C 0.1748(3) 0.7034(3) 0.9349(3)
C11_2 C 0.2023(3) 0.7141(3) 0.9896(3)
H6_2 H 0.242561 0.723081 0.991208
C14_2 C 0.0815(3) 0.6892(5) 0.9846(3)
C15_2 C 0.1158(3) 0.6903(4) 0.9327(3)
H8_2 H 0.098142 0.681977 0.896282
C16_2 C 0.2083(3) 0.7051(3) 0.8783(3)
C18_2 C 0.0172(3) 0.6815(4) 0.9759(3)
O11_2 O 0.2600(2) 0.7254(2) 0.8783(2)
O12_2 O 0.1802(2) 0.6835(2) 0.83461(19)
O15_2 O 0.0005(6) 0.6625(10) 0.9269(6)
In2_2 In 0.32192(2) 0.73935(2) 0.80588(2)
O16_2 O 0.2587(2) 0.7413(2) 0.7413(2)
O17_2 O 0.3874(2) 0.7385(3) 0.8728(2)
O35_2 O 0.1272(2) 0.6126(2) 0.7385(3)
O45_2 O 0.3165(2) 0.83461(19) 0.8198(2)
O47_2 O 0.2526(2) 0.60323(19) 0.7564(2)
O51_2 O 0.39677(19) 0.7564(2) 0.7474(2)
O54_2 O 0.2041(3) 0.6624(2) 0.6411(2)
O55_2 O 0.3376(2) 0.6411(2) 0.7959(3)
C1_2 C 0.8252(3) 0.7034(3) 0.0651(3)
C2_2 C 0.7977(3) 0.7141(3) 0.0104(3)
H1_2 H 0.757439 0.723081 0.008792
C5_2 C 0.9185(3) 0.6892(5) 0.0154(3)
C6_2 C 0.8842(3) 0.6903(4) 0.0673(3)
H3_2 H 0.901858 0.681977 0.103718
C7_2 C 0.7917(3) 0.7051(3) 0.1217(3)
C9_2 C 0.9828(3) 0.6815(4) 0.0241(3)
In1_2 In 0.67808(2) 0.73935(2) 0.19412(2)
O4_2 O 0.7400(2) 0.7254(2) 0.1217(2)
O8_2 O 0.9995(6) 0.6625(10) 0.0731(6)
O10_2 O 0.6126(2) 0.7385(3) 0.1272(2)
O41_2 O 0.7385(3) 0.8728(2) 0.3874(2)
O42_2 O 0.7254(2) 0.8783(2) 0.2600(2)
O44_2 O 0.6835(2) 0.83461(19) 0.1802(2)
O46_2 O 0.7564(2) 0.7474(2) 0.39677(19)
O50_2 O 0.60323(19) 0.7564(2) 0.2526(2)
O56_2 O 0.6624(2) 0.6411(2) 0.2041(3)
O57_2 O 0.6411(2) 0.7959(3) 0.3376(2)
C3_2 C 0.8310(3) 0.7114(3) 0.9583(3)
C4_2 C 0.8917(3) 0.6979(4) 0.9621(3)
H2_2 H 0.913979 0.694799 0.927494
C8_2 C 0.8045(3) 0.7192(3) 0.8987(3)
O6_2 O 0.7526(2) 0.7436(2) 0.89677(19)
O7_2 O 0.8376(2) 0.7041(3) 0.8589(2)
In20_2 In 0.69412(2) 0.76065(2) 0.82192(2)
O41_3 O 0.7385(3) 0.1272(2) 0.6126(2)
O42_3 O 0.7254(2) 0.1217(2) 0.7400(2)
O46_3 O 0.7564(2) 0.2526(2) 0.60323(19)
O57_3 O 0.6411(2) 0.2041(3) 0.6624(2)
O41_4 O 0.2615(3) 0.8728(2) 0.6126(2)
O42_4 O 0.2746(2) 0.8783(2) 0.7400(2)
O46_4 O 0.2436(2) 0.7474(2) 0.60323(19)
O57_4 O 0.3589(2) 0.7959(3) 0.6624(2)
C19_2 C 0.2966(3) 0.0651(3) 0.1748(3)
C20_2 C 0.2859(3) 0.0104(3) 0.2023(3)
H11_2 H 0.276919 0.008792 0.242561
C23_2 C 0.3108(5) 0.0154(3) 0.0815(3)
C24_2 C 0.3097(4) 0.0673(3) 0.1158(3)
H13_2 H 0.318023 0.103718 0.098142
C25_2 C 0.2949(3) 0.1217(3) 0.2083(3)
C27_2 C 0.3185(4) 0.0241(3) 0.0172(3)
O22_2 O 0.3375(10) 0.0731(6) 0.0005(6)
C30_2 C 0.2886(3) 0.0417(3) 0.8310(3)
C31_2 C 0.3021(4) 0.0379(3) 0.8917(3)
H17_2 H 0.305201 0.072506 0.913979
C35_2 C 0.2808(3) 0.1013(3) 0.8045(3)
O26_2 O 0.2564(2) 0.10323(19) 0.7526(2)
O27_2 O 0.2959(3) 0.1411(2) 0.8376(2)
C21_2 C 0.2886(3) 0.9583(3) 0.1690(3)
C22_2 C 0.3021(4) 0.9621(3) 0.1083(3)
H12_2 H 0.305201 0.927494 0.086021
C26_2 C 0.2808(3) 0.8987(3) 0.1955(3)
O20_2 O 0.2564(2) 0.89677(19) 0.2474(2)
O21_2 O 0.2959(3) 0.8589(2) 0.1624(2)
C28_2 C 0.2966(3) 0.9349(3) 0.8252(3)
C29_2 C 0.2859(3) 0.9896(3) 0.7977(3)
H16_2 H 0.276919 0.991208 0.757439
C32_2 C 0.3108(5) 0.9846(3) 0.9185(3)
C33_2 C 0.3097(4) 0.9327(3) 0.8842(3)
H18_2 H 0.318023 0.896282 0.901858
C34_2 C 0.2949(3) 0.8783(3) 0.7917(3)
C36_2 C 0.3185(4) 0.9759(3) 0.9828(3)
O28_2 O 0.3375(10) 0.9269(6) 0.9995(6)
C39_2 C 0.7114(3) 0.0417(3) 0.1690(3)
C40_2 C 0.6979(4) 0.0379(3) 0.1083(3)
H22_2 H 0.694799 0.072506 0.086021
C44_2 C 0.7192(3) 0.1013(3) 0.1955(3)
O32_2 O 0.7436(2) 0.10323(19) 0.2474(2)
O33_2 O 0.7041(3) 0.1411(2) 0.1624(2)
C46_2 C 0.7034(3) 0.0651(3) 0.8252(3)
C47_2 C 0.7141(3) 0.0104(3) 0.7977(3)
H26_2 H 0.723081 0.008792 0.757439
C50_2 C 0.6892(5) 0.0154(3) 0.9185(3)
C51_2 C 0.6903(4) 0.0673(3) 0.8842(3)
H28_2 H 0.681977 0.103718 0.901858
C52_2 C 0.7051(3) 0.1217(3) 0.7917(3)
C54_2 C 0.6815(4) 0.0241(3) 0.9828(3)
O40_2 O 0.6625(10) 0.0731(6) 0.9995(6)
C37_2 C 0.7034(3) 0.9349(3) 0.1748(3)
C38_2 C 0.7141(3) 0.9896(3) 0.2023(3)
H21_2 H 0.723081 0.991208 0.242561
C41_2 C 0.6892(5) 0.9846(3) 0.0815(3)
C42_2 C 0.6903(4) 0.9327(3) 0.1158(3)
H23_2 H 0.681977 0.896282 0.098142
C43_2 C 0.7051(3) 0.8783(3) 0.2083(3)
C45_2 C 0.6815(4) 0.9759(3) 0.0172(3)
O34_2 O 0.6625(10) 0.9269(6) 0.0005(6)
C48_2 C 0.7114(3) 0.9583(3) 0.8310(3)
C49_2 C 0.6979(4) 0.9621(3) 0.8917(3)
H27_2 H 0.694799 0.927494 0.913979
C53_2 C 0.7192(3) 0.8987(3) 0.8045(3)
O38_2 O 0.7436(2) 0.89677(19) 0.7526(2)
O39_2 O 0.7041(3) 0.8589(2) 0.8376(2)
C1_3 C 0.7966(3) 0.6748(3) 0.5651(3)
C2_3 C 0.7859(3) 0.7023(3) 0.5104(3)
H1_3 H 0.776919 0.742561 0.508792
C3_3 C 0.7886(3) 0.6690(3) 0.4583(3)
C4_3 C 0.8021(4) 0.6083(3) 0.4621(3)
H2_3 H 0.805201 0.586021 0.427494
C5_3 C 0.8108(5) 0.5815(3) 0.5154(3)
C6_3 C 0.8097(4) 0.6158(3) 0.5673(3)
H3_3 H 0.818023 0.598142 0.603718
C7_3 C 0.7949(3) 0.7083(3) 0.6217(3)
C8_3 C 0.7808(3) 0.6955(3) 0.3987(3)
C9_3 C 0.8185(4) 0.5172(3) 0.5241(3)
O4_3 O 0.7746(2) 0.7600(2) 0.6217(2)
O5_2 O 0.8165(2) 0.6802(2) 0.66539(19)
O8_3 O 0.8375(10) 0.5005(6) 0.5731(6)
O9_2 O 0.7587(2) 0.7587(2) 0.7587(2)
O10_3 O 0.7615(3) 0.8874(2) 0.6272(2)
C10_3 C 0.7966(3) 0.3252(3) 0.4349(3)
C11_3 C 0.7859(3) 0.2977(3) 0.4896(3)
H6_3 H 0.776919 0.257439 0.491208
C12_3 C 0.7886(3) 0.3310(3) 0.5417(3)
C13_3 C 0.8021(4) 0.3917(3) 0.5379(3)
H7_3 H 0.805201 0.413979 0.572506
C14_3 C 0.8108(5) 0.4185(3) 0.4846(3)
C15_3 C 0.8097(4) 0.3842(3) 0.4327(3)
H8_3 H 0.818023 0.401858 0.396282
C16_3 C 0.7949(3) 0.2917(3) 0.3783(3)
C17_3 C 0.7808(3) 0.3045(3) 0.6013(3)
C18_3 C 0.8185(4) 0.4828(3) 0.4759(3)
O11_3 O 0.7746(2) 0.2400(2) 0.3783(2)
O12_3 O 0.8165(2) 0.3198(2) 0.33461(19)
O15_3 O 0.8375(10) 0.4995(6) 0.4269(6)
O16_3 O 0.7587(2) 0.2413(2) 0.2413(2)
O17_3 O 0.7615(3) 0.1126(2) 0.3728(2)
C19_3 C 0.6748(3) 0.5651(3) 0.7966(3)
C20_3 C 0.7023(3) 0.5104(3) 0.7859(3)
H11_3 H 0.742561 0.508792 0.776919
C21_3 C 0.6690(3) 0.4583(3) 0.7886(3)
C22_3 C 0.6083(3) 0.4621(3) 0.8021(4)
H12_3 H 0.586021 0.427494 0.805201
C23_3 C 0.5815(3) 0.5154(3) 0.8108(5)
C24_3 C 0.6158(3) 0.5673(3) 0.8097(4)
H13_3 H 0.598142 0.603718 0.818023
C25_3 C 0.7083(3) 0.6217(3) 0.7949(3)
C26_3 C 0.6955(3) 0.3987(3) 0.7808(3)
C27_3 C 0.5172(3) 0.5241(3) 0.8185(4)
O18_2 O 0.7600(2) 0.6217(2) 0.7746(2)
O19_2 O 0.6802(2) 0.66539(19) 0.8165(2)
O22_3 O 0.5005(6) 0.5731(6) 0.8375(10)
O23_2 O 0.8874(2) 0.6272(2) 0.7615(3)
C28_3 C 0.3252(3) 0.4349(3) 0.7966(3)
C29_3 C 0.2977(3) 0.4896(3) 0.7859(3)
H16_3 H 0.257439 0.491208 0.776919
C30_3 C 0.3310(3) 0.5417(3) 0.7886(3)
C31_3 C 0.3917(3) 0.5379(3) 0.8021(4)
H17_3 H 0.413979 0.572506 0.805201
C32_3 C 0.4185(3) 0.4846(3) 0.8108(5)
C33_3 C 0.3842(3) 0.4327(3) 0.8097(4)
H18_3 H 0.401858 0.396282 0.818023
C34_3 C 0.2917(3) 0.3783(3) 0.7949(3)
C35_3 C 0.3045(3) 0.6013(3) 0.7808(3)
C36_3 C 0.4828(3) 0.4759(3) 0.8185(4)
O24_2 O 0.2400(2) 0.3783(2) 0.7746(2)
O25_2 O 0.3198(2) 0.33461(19) 0.8165(2)
O28_3 O 0.4995(6) 0.4269(6) 0.8375(10)
O29_2 O 0.1126(2) 0.3728(2) 0.7615(3)
C37_3 C 0.6748(3) 0.4349(3) 0.2034(3)
C38_3 C 0.7023(3) 0.4896(3) 0.2141(3)
H21_3 H 0.742561 0.491208 0.223081
C39_3 C 0.6690(3) 0.5417(3) 0.2114(3)
C40_3 C 0.6083(3) 0.5379(3) 0.1979(4)
H22_3 H 0.586021 0.572506 0.194799
C41_3 C 0.5815(3) 0.4846(3) 0.1892(5)
C42_3 C 0.6158(3) 0.4327(3) 0.1903(4)
H23_3 H 0.598142 0.396282 0.181977
C43_3 C 0.7083(3) 0.3783(3) 0.2051(3)
C44_3 C 0.6955(3) 0.6013(3) 0.2192(3)
C45_3 C 0.5172(3) 0.4759(3) 0.1815(4)
O30_2 O 0.7600(2) 0.3783(2) 0.2254(2)
O31_2 O 0.6802(2) 0.33461(19) 0.1835(2)
O34_3 O 0.5005(6) 0.4269(6) 0.1625(10)
O35_3 O 0.8874(2) 0.3728(2) 0.2385(3)
C46_3 C 0.3252(3) 0.5651(3) 0.2034(3)
C47_3 C 0.2977(3) 0.5104(3) 0.2141(3)
H26_3 H 0.257439 0.508792 0.223081
C48_3 C 0.3310(3) 0.4583(3) 0.2114(3)
C49_3 C 0.3917(3) 0.4621(3) 0.1979(4)
H27_3 H 0.413979 0.427494 0.194799
C50_3 C 0.4185(3) 0.5154(3) 0.1892(5)
C51_3 C 0.3842(3) 0.5673(3) 0.1903(4)
H28_3 H 0.401858 0.603718 0.181977
C52_3 C 0.2917(3) 0.6217(3) 0.2051(3)
C53_3 C 0.3045(3) 0.3987(3) 0.2192(3)
C54_3 C 0.4828(3) 0.5241(3) 0.1815(4)
O36_2 O 0.2400(2) 0.6217(2) 0.2254(2)
O37_2 O 0.3198(2) 0.66539(19) 0.1835(2)
O40_3 O 0.4995(6) 0.5731(6) 0.1625(10)
O41_5 O 0.6272(2) 0.7615(3) 0.8874(2)
O42_5 O 0.6217(2) 0.7746(2) 0.7600(2)
O43_2 O 0.1835(2) 0.3198(2) 0.66539(19)
O44_3 O 0.66539(19) 0.8165(2) 0.6802(2)
O45_3 O 0.66539(19) 0.1835(2) 0.3198(2)
O58_2 O 0.2413(2) 0.2413(2) 0.7587(2)
C1_4 C 0.2034(3) 0.3252(3) 0.5651(3)
C2_4 C 0.2141(3) 0.2977(3) 0.5104(3)
H1_4 H 0.223081 0.257439 0.508792
C3_4 C 0.2114(3) 0.3310(3) 0.4583(3)
C4_4 C 0.1979(4) 0.3917(3) 0.4621(3)
H2_4 H 0.194799 0.413979 0.427494
C5_4 C 0.1892(5) 0.4185(3) 0.5154(3)
C6_4 C 0.1903(4) 0.3842(3) 0.5673(3)
H3_4 H 0.181977 0.401858 0.603718
C7_4 C 0.2051(3) 0.2917(3) 0.6217(3)
C8_4 C 0.2192(3) 0.3045(3) 0.3987(3)
C9_4 C 0.1815(4) 0.4828(3) 0.5241(3)
O4_4 O 0.2254(2) 0.2400(2) 0.6217(2)
O8_4 O 0.1625(10) 0.4995(6) 0.5731(6)
O10_4 O 0.2385(3) 0.1126(2) 0.6272(2)
C10_4 C 0.2034(3) 0.6748(3) 0.4349(3)
C11_4 C 0.2141(3) 0.7023(3) 0.4896(3)
H6_4 H 0.223081 0.742561 0.491208
C12_4 C 0.2114(3) 0.6690(3) 0.5417(3)
C13_4 C 0.1979(4) 0.6083(3) 0.5379(3)
H7_4 H 0.194799 0.586021 0.572506
C14_4 C 0.1892(5) 0.5815(3) 0.4846(3)
C15_4 C 0.1903(4) 0.6158(3) 0.4327(3)
H8_4 H 0.181977 0.598142 0.396282
C16_4 C 0.2051(3) 0.7083(3) 0.3783(3)
C17_4 C 0.2192(3) 0.6955(3) 0.6013(3)
C18_4 C 0.1815(4) 0.5172(3) 0.4759(3)
O11_4 O 0.2254(2) 0.7600(2) 0.3783(2)
O12_4 O 0.1835(2) 0.6802(2) 0.33461(19)
O15_4 O 0.1625(10) 0.5005(6) 0.4269(6)
O16_4 O 0.2413(2) 0.7587(2) 0.2413(2)
O17_4 O 0.2385(3) 0.8874(2) 0.3728(2)
O35_4 O 0.1126(2) 0.6272(2) 0.2385(3)
O41_6 O 0.3728(2) 0.2385(3) 0.8874(2)
O42_6 O 0.3783(2) 0.2254(2) 0.7600(2)
O44_4 O 0.33461(19) 0.1835(2) 0.6802(2)
O45_4 O 0.33461(19) 0.8165(2) 0.3198(2)
O41_7 O 0.6272(2) 0.2385(3) 0.1126(2)
O42_7 O 0.6217(2) 0.2254(2) 0.2400(2)
O41_8 O 0.3728(2) 0.7615(3) 0.1126(2)
O42_8 O 0.3783(2) 0.7746(2) 0.2400(2)
C19_4 C 0.5651(3) 0.7966(3) 0.6748(3)
C20_4 C 0.5104(3) 0.7859(3) 0.7023(3)
H11_4 H 0.508792 0.776919 0.742561
C21_4 C 0.4583(3) 0.7886(3) 0.6690(3)
C22_4 C 0.4621(3) 0.8021(4) 0.6083(3)
H12_4 H 0.427494 0.805201 0.586021
C23_4 C 0.5154(3) 0.8108(5) 0.5815(3)
C24_4 C 0.5673(3) 0.8097(4) 0.6158(3)
H13_4 H 0.603718 0.818023 0.598142
C25_4 C 0.6217(3) 0.7949(3) 0.7083(3)
C26_4 C 0.3987(3) 0.7808(3) 0.6955(3)
C27_4 C 0.5241(3) 0.8185(4) 0.5172(3)
O22_4 O 0.5731(6) 0.8375(10) 0.5005(6)
C28_4 C 0.4349(3) 0.7966(3) 0.3252(3)
C29_4 C 0.4896(3) 0.7859(3) 0.2977(3)
H16_4 H 0.491208 0.776919 0.257439
C30_4 C 0.5417(3) 0.7886(3) 0.3310(3)
C31_4 C 0.5379(3) 0.8021(4) 0.3917(3)
H17_4 H 0.572506 0.805201 0.413979
C32_4 C 0.4846(3) 0.8108(5) 0.4185(3)
C33_4 C 0.4327(3) 0.8097(4) 0.3842(3)
H18_4 H 0.396282 0.818023 0.401858
C34_4 C 0.3783(3) 0.7949(3) 0.2917(3)
C35_4 C 0.6013(3) 0.7808(3) 0.3045(3)
C36_4 C 0.4759(3) 0.8185(4) 0.4828(3)
O28_4 O 0.4269(6) 0.8375(10) 0.4995(6)
C37_4 C 0.4349(3) 0.2034(3) 0.6748(3)
C38_4 C 0.4896(3) 0.2141(3) 0.7023(3)
H21_4 H 0.491208 0.223081 0.742561
C39_4 C 0.5417(3) 0.2114(3) 0.6690(3)
C40_4 C 0.5379(3) 0.1979(4) 0.6083(3)
H22_4 H 0.572506 0.194799 0.586021
C41_4 C 0.4846(3) 0.1892(5) 0.5815(3)
C42_4 C 0.4327(3) 0.1903(4) 0.6158(3)
H23_4 H 0.396282 0.181977 0.598142
C43_4 C 0.3783(3) 0.2051(3) 0.7083(3)
C44_4 C 0.6013(3) 0.2192(3) 0.6955(3)
C45_4 C 0.4759(3) 0.1815(4) 0.5172(3)
O34_4 O 0.4269(6) 0.1625(10) 0.5005(6)
C46_4 C 0.5651(3) 0.2034(3) 0.3252(3)
C47_4 C 0.5104(3) 0.2141(3) 0.2977(3)
H26_4 H 0.508792 0.223081 0.257439
C48_4 C 0.4583(3) 0.2114(3) 0.3310(3)
C49_4 C 0.4621(3) 0.1979(4) 0.3917(3)
H27_4 H 0.427494 0.194799 0.413979
C50_4 C 0.5154(3) 0.1892(5) 0.4185(3)
C51_4 C 0.5673(3) 0.1903(4) 0.3842(3)
H28_4 H 0.603718 0.181977 0.401858
C52_4 C 0.6217(3) 0.2051(3) 0.2917(3)
C53_4 C 0.3987(3) 0.2192(3) 0.3045(3)
C54_4 C 0.5241(3) 0.1815(4) 0.4828(3)
O40_4 O 0.5731(6) 0.1625(10) 0.4995(6)
loop_
_geom_bond_atom_site_label_1
_geom_bond_atom_site_label_2
_geom_bond_site_symmetry_1
_geom_bond_site_symmetry_2
N1 O1 1_555 1_555
O2 N1 1_555 1_555
O3 N1 1_555 1_555
N1_2 O1_2 1_555 1_555
O2_2 N1_2 1_555 1_555
O3_2 N1_2 1_555 1_555
N1_3 O1_3 1_555 1_555
O2_3 N1_3 1_555 1_555
O3_3 N1_3 1_555 1_555
N1_4 O1_4 1_555 1_555
O2_4 N1_4 1_555 1_555
O3_4 N1_4 1_555 1_555
N1_5 O1_5 1_555 1_555
O2_5 N1_5 1_555 1_555
O3_5 N1_5 1_555 1_555
N1_6 O1_6 1_555 1_555
O2_6 N1_6 1_555 1_555
O3_6 N1_6 1_555 1_555
N1_7 O1_7 1_555 1_555
O2_7 N1_7 1_555 1_555
O3_7 N1_7 1_555 1_555
N1_8 O1_8 1_555 1_555
O2_8 N1_8 1_555 1_555
O3_8 N1_8 1_555 1_555
C1 C2 1_555 1_555
C2 H1 1_555 1_555
C6 C1 1_555 1_555
H3 C6 1_555 1_555
C7 C1 1_555 1_555
C9 C5 1_555 1_555
In1 O4 1_555 1_555
O4 C7 1_555 1_555
O5 C7 1_555 1_555
O8 C9 1_555 1_555
O9 In1 1_555 1_555
O10 In1 1_555 1_555
C19 C20 1_555 1_555
C20 H11 1_555 1_555
C24 C19 1_555 1_555
H13 C24 1_555 1_555
C25 C19 1_555 1_555
C27 C23 1_555 1_555
In3 O5 1_555 1_555
O18 C25 1_555 1_555
O19 C25 1_555 1_555
O22 C27 1_555 1_555
O23 In3 1_555 1_555
In6 O9 1_555 1_555
O41 In6 1_555 1_555
O42 In6 1_555 1_555
O44 In1 1_555 1_555
O46 In6 1_555 1_555
O48 In3 1_555 1_555
O50 In1 1_555 1_555
O53 In3 1_555 1_555
O56 In1 1_555 1_555
O57 In6 1_555 1_555
C5 C6 1_555 1_555
O9 In3 1_555 1_555
C23 C24 1_555 1_555
In3 O18 1_555 1_555
O19 In6 1_555 1_555
C4 C3 1_555 1_555
H2 C4 1_555 1_555
C8 C3 1_555 1_555
O6 C8 1_555 1_555
O7 C8 1_555 1_555
C40 C39 1_555 1_555
H22 C40 1_555 1_555
C44 C39 1_555 1_555
O32 C44 1_555 1_555
O33 C44 1_555 1_555
In12 O33 1_555 1_555
In17 O7 1_555 1_555
In20 O6 1_555 1_555
O32 In17 1_555 1_555
C31 C30 1_555 1_555
H17 C31 1_555 1_555
C35 C30 1_555 1_555
O26 C35 1_555 1_555
O27 C35 1_555 1_555
In14 O27 1_555 1_555
In16 O26 1_555 1_555
C46 C47 1_555 1_555
C47 H26 1_555 1_555
C51 C46 1_555 1_555
H28 C51 1_555 1_555
C52 C46 1_555 1_555
O36 C52 1_555 1_555
O37 C52 1_555 1_555
O40 C54 1_555 1_555
In7 O36 1_555 1_555
In9 O37 1_555 1_555
C50 C51 1_555 1_555
C50 C54 1_555 1_555
C13 C12 1_555 1_555
H7 C13 1_555 1_555
C17 C12 1_555 1_555
O13 C17 1_555 1_555
O14 C17 1_555 1_555
C22 C21 1_555 1_555
H12 C22 1_555 1_555
C26 C21 1_555 1_555
O20 C26 1_555 1_555
O21 C26 1_555 1_555
In13 O21 1_555 1_555
In18 O14 1_555 1_555
In19 O13 1_555 1_555
O20 In18 1_555 1_555
C10 C11 1_555 1_555
C11 H6 1_555 1_555
C15 C10 1_555 1_555
H8 C15 1_555 1_555
C16 C10 1_555 1_555
O11 C16 1_555 1_555
O12 C16 1_555 1_555
O15 C18 1_555 1_555
In2 O11 1_555 1_555
O16 In2 1_555 1_555
O17 In2 1_555 1_555
C37 C38 1_555 1_555
C38 H21 1_555 1_555
C42 C37 1_555 1_555
H23 C42 1_555 1_555
C43 C37 1_555 1_555
C45 C41 1_555 1_555
In5 O12 1_555 1_555
O30 C43 1_555 1_555
O31 C43 1_555 1_555
O34 C45 1_555 1_555
O35 In5 1_555 1_555
In8 O16 1_555 1_555
O45 In2 1_555 1_555
O47 In5 1_555 1_555
O51 In2 1_555 1_555
O54 In5 1_555 1_555
O55 In2 1_555 1_555
C14 C15 1_555 1_555
C14 C18 1_555 1_555
O16 In5 1_555 1_555
C41 C42 1_555 1_555
In5 O30 1_555 1_555
O31 In8 1_555 1_555
C28 C29 1_555 1_555
C29 H16 1_555 1_555
C33 C28 1_555 1_555
H18 C33 1_555 1_555
C34 C28 1_555 1_555
O24 C34 1_555 1_555
O25 C34 1_555 1_555
O28 C36 1_555 1_555
In4 O24 1_555 1_555
O29 In4 1_555 1_555
In10 O25 1_555 1_555
O43 In4 1_555 1_555
O49 In4 1_555 1_555
O52 In4 1_555 1_555
O58 In4 1_555 1_555
C32 C33 1_555 1_555
C32 C36 1_555 1_555
In10 O58 1_555 1_555
C49 C48 1_555 1_555
H27 C49 1_555 1_555
C53 C48 1_555 1_555
O38 C53 1_555 1_555
O39 C53 1_555 1_555
In11 O39 1_555 1_555
In15 O38 1_555 1_555
C13_2 C12_2 1_555 1_555
H7_2 C13_2 1_555 1_555
C17_2 C12_2 1_555 1_555
O13_2 C17_2 1_555 1_555
O14_2 C17_2 1_555 1_555
In16 O14_2 1_555 1_555
In19_2 O13_2 1_555 1_555
C10_2 C11_2 1_555 1_555
C11_2 H6_2 1_555 1_555
C15_2 C10_2 1_555 1_555
H8_2 C15_2 1_555 1_555
C16_2 C10_2 1_555 1_555
O11_2 C16_2 1_555 1_555
O12_2 C16_2 1_555 1_555
O15_2 C18_2 1_555 1_555
In2_2 O11_2 1_555 1_555
O16_2 In2_2 1_555 1_555
O17_2 In2_2 1_555 1_555
In7 O12_2 1_555 1_555
O35_2 In7 1_555 1_555
In9 O16_2 1_555 1_555
O45_2 In2_2 1_555 1_555
O47_2 In7 1_555 1_555
O51_2 In2_2 1_555 1_555
O54_2 In7 1_555 1_555
O55_2 In2_2 1_555 1_555
C14_2 C15_2 1_555 1_555
C14_2 C18_2 1_555 1_555
O16_2 In7 1_555 1_555
C1_2 C2_2 1_555 1_555
C2_2 H1_2 1_555 1_555
C6_2 C1_2 1_555 1_555
H3_2 C6_2 1_555 1_555
C7_2 C1_2 1_555 1_555
C9_2 C5_2 1_555 1_555
In1_2 O4_2 1_555 1_555
O4_2 C7_2 1_555 1_555
O43 C7_2 1_555 1_555
O8_2 C9_2 1_555 1_555
O58 In1_2 1_555 1_555
O10_2 In1_2 1_555 1_555
O41_2 In10 1_555 1_555
O42_2 In10 1_555 1_555
O44_2 In1_2 1_555 1_555
O46_2 In10 1_555 1_555
O50_2 In1_2 1_555 1_555
O56_2 In1_2 1_555 1_555
O57_2 In10 1_555 1_555
C5_2 C6_2 1_555 1_555
C4_2 C3_2 1_555 1_555
H2_2 C4_2 1_555 1_555
C8_2 C3_2 1_555 1_555
O6_2 C8_2 1_555 1_555
O7_2 C8_2 1_555 1_555
In15 O7_2 1_555 1_555
In20_2 O6_2 1_555 1_555
O41_3 In8 1_555 1_555
O42_3 In8 1_555 1_555
O46_3 In8 1_555 1_555
O57_3 In8 1_555 1_555
O41_4 In9 1_555 1_555
O42_4 In9 1_555 1_555
O46_4 In9 1_555 1_555
O57_4 In9 1_555 1_555
C19_2 C20_2 1_555 1_555
C20_2 H11_2 1_555 1_555
C24_2 C19_2 1_555 1_555
H13_2 C24_2 1_555 1_555
C25_2 C19_2 1_555 1_555
C27_2 C23_2 1_555 1_555
O42 C25_2 1_555 1_555
O44 C25_2 1_555 1_555
O22_2 C27_2 1_555 1_555
C23_2 C24_2 1_555 1_555
C31_2 C30_2 1_555 1_555
H17_2 C31_2 1_555 1_555
C35_2 C30_2 1_555 1_555
O26_2 C35_2 1_555 1_555
O27_2 C35_2 1_555 1_555
In20 O27_2 1_555 1_555
In12 O26_2 1_555 1_555
C22_2 C21_2 1_555 1_555
H12_2 C22_2 1_555 1_555
C26_2 C21_2 1_555 1_555
O20_2 C26_2 1_555 1_555
O21_2 C26_2 1_555 1_555
In19_2 O21_2 1_555 1_555
O20_2 In14 1_555 1_555
C28_2 C29_2 1_555 1_555
C29_2 H16_2 1_555 1_555
C33_2 C28_2 1_555 1_555
H18_2 C33_2 1_555 1_555
C34_2 C28_2 1_555 1_555
O42_4 C34_2 1_555 1_555
O45_2 C34_2 1_555 1_555
O28_2 C36_2 1_555 1_555
C32_2 C33_2 1_555 1_555
C32_2 C36_2 1_555 1_555
C40_2 C39_2 1_555 1_555
H22_2 C40_2 1_555 1_555
C44_2 C39_2 1_555 1_555
O32_2 C44_2 1_555 1_555
O33_2 C44_2 1_555 1_555
In19 O33_2 1_555 1_555
O32_2 In13 1_555 1_555
C46_2 C47_2 1_555 1_555
C47_2 H26_2 1_555 1_555
C51_2 C46_2 1_555 1_555
H28_2 C51_2 1_555 1_555
C52_2 C46_2 1_555 1_555
O42_3 C52_2 1_555 1_555
O45 C52_2 1_555 1_555
O40_2 C54_2 1_555 1_555
C50_2 C51_2 1_555 1_555
C50_2 C54_2 1_555 1_555
C37_2 C38_2 1_555 1_555
C38_2 H21_2 1_555 1_555
C42_2 C37_2 1_555 1_555
H23_2 C42_2 1_555 1_555
C43_2 C37_2 1_555 1_555
C45_2 C41_2 1_555 1_555
O42_2 C43_2 1_555 1_555
O44_2 C43_2 1_555 1_555
O34_2 C45_2 1_555 1_555
C41_2 C42_2 1_555 1_555
C49_2 C48_2 1_555 1_555
H27_2 C49_2 1_555 1_555
C53_2 C48_2 1_555 1_555
O38_2 C53_2 1_555 1_555
O39_2 C53_2 1_555 1_555
In20_2 O39_2 1_555 1_555
In11 O38_2 1_555 1_555
C1_3 C2_3 1_555 1_555
C2_3 H1_3 1_555 1_555
C3_3 C2_3 1_555 1_555
C4_3 C3_3 1_555 1_555
H2_3 C4_3 1_555 1_555
C5_3 C4_3 1_555 1_555
C6_3 C1_3 1_555 1_555
H3_3 C6_3 1_555 1_555
C7_3 C1_3 1_555 1_555
C8_3 C3_3 1_555 1_555
C9_3 C5_3 1_555 1_555
In11 O4_3 1_555 1_555
O4_3 C7_3 1_555 1_555
O5_2 C7_3 1_555 1_555
O46_2 C8_3 1_555 1_555
O52 C8_3 1_555 1_555
O8_3 C9_3 1_555 1_555
O9_2 In11 1_555 1_555
O10_3 In11 1_555 1_555
C10_3 C11_3 1_555 1_555
C11_3 H6_3 1_555 1_555
C12_3 C11_3 1_555 1_555
C13_3 C12_3 1_555 1_555
H7_3 C13_3 1_555 1_555
C14_3 C13_3 1_555 1_555
C15_3 C10_3 1_555 1_555
H8_3 C15_3 1_555 1_555
C16_3 C10_3 1_555 1_555
C17_3 C12_3 1_555 1_555
C18_3 C9_3 1_555 1_555
O11_3 C16_3 1_555 1_555
O12_3 C16_3 1_555 1_555
O46_3 C17_3 1_555 1_555
O54 C17_3 1_555 1_555
O15_3 C18_3 1_555 1_555
In13 O11_3 1_555 1_555
O16_3 In13 1_555 1_555
O17_3 In13 1_555 1_555
C19_3 C20_3 1_555 1_555
C20_3 H11_3 1_555 1_555
C21_3 C20_3 1_555 1_555
C22_3 C21_3 1_555 1_555
H12_3 C22_3 1_555 1_555
C23_3 C22_3 1_555 1_555
C24_3 C19_3 1_555 1_555
H13_3 C24_3 1_555 1_555
C25_3 C19_3 1_555 1_555
C26_3 C21_3 1_555 1_555
C27_3 C23_3 1_555 1_555
In15 O5_2 1_555 1_555
O18_2 C25_3 1_555 1_555
O19_2 C25_3 1_555 1_555
O47 C26_3 1_555 1_555
O55 C26_3 1_555 1_555
O22_3 C27_3 1_555 1_555
O23_2 In15 1_555 1_555
C28_3 C29_3 1_555 1_555
C29_3 H16_3 1_555 1_555
C30_3 C29_3 1_555 1_555
C31_3 C30_3 1_555 1_555
H17_3 C31_3 1_555 1_555
C32_3 C31_3 1_555 1_555
C33_3 C28_3 1_555 1_555
H18_3 C33_3 1_555 1_555
C34_3 C28_3 1_555 1_555
C35_3 C30_3 1_555 1_555
C36_3 C27_3 1_555 1_555
O24_2 C34_3 1_555 1_555
O25_2 C34_3 1_555 1_555
O47_2 C35_3 1_555 1_555
O55_2 C35_3 1_555 1_555
O28_3 C36_3 1_555 1_555
In17 O24_2 1_555 1_555
O29_2 In17 1_555 1_555
C37_3 C38_3 1_555 1_555
C38_3 H21_3 1_555 1_555
C39_3 C38_3 1_555 1_555
C40_3 C39_3 1_555 1_555
H22_3 C40_3 1_555 1_555
C41_3 C40_3 1_555 1_555
C42_3 C37_3 1_555 1_555
H23_3 C42_3 1_555 1_555
C43_3 C37_3 1_555 1_555
C44_3 C39_3 1_555 1_555
C45_3 C41_3 1_555 1_555
In18 O12_3 1_555 1_555
O30_2 C43_3 1_555 1_555
O31_2 C43_3 1_555 1_555
O49 C44_3 1_555 1_555
O56_2 C44_3 1_555 1_555
O34_3 C45_3 1_555 1_555
O35_3 In18 1_555 1_555
C46_3 C47_3 1_555 1_555
C47_3 H26_3 1_555 1_555
C48_3 C47_3 1_555 1_555
C49_3 C48_3 1_555 1_555
H27_3 C49_3 1_555 1_555
C50_3 C49_3 1_555 1_555
C51_3 C46_3 1_555 1_555
H28_3 C51_3 1_555 1_555
C52_3 C46_3 1_555 1_555
C53_3 C48_3 1_555 1_555
C54_3 C45_3 1_555 1_555
O36_2 C52_3 1_555 1_555
O37_2 C52_3 1_555 1_555
O48 C53_3 1_555 1_555
O56 C53_3 1_555 1_555
O40_3 C54_3 1_555 1_555
In20_2 O9_2 1_555 1_555
O41_5 In20_2 1_555 1_555
In16 O36_2 1_555 1_555
In19 O16_3 1_555 1_555
In19_2 O37_2 1_555 1_555
In20 O25_2 1_555 1_555
O42_5 In20_2 1_555 1_555
O43_2 In17 1_555 1_555
O44_3 In11 1_555 1_555
O45_3 In13 1_555 1_555
O58_2 In17 1_555 1_555
C5_3 C6_3 1_555 1_555
O9_2 In15 1_555 1_555
C14_3 C15_3 1_555 1_555
C14_3 C18_3 1_555 1_555
O16_3 In18 1_555 1_555
C23_3 C24_3 1_555 1_555
In15 O18_2 1_555 1_555
O19_2 In20_2 1_555 1_555
C32_3 C33_3 1_555 1_555
C32_3 C36_3 1_555 1_555
C41_3 C42_3 1_555 1_555
In18 O30_2 1_555 1_555
O31_2 In19 1_555 1_555
C50_3 C51_3 1_555 1_555
C50_3 C54_3 1_555 1_555
In20 O58_2 1_555 1_555
C1_4 C2_4 1_555 1_555
C2_4 H1_4 1_555 1_555
C3_4 C2_4 1_555 1_555
C4_4 C3_4 1_555 1_555
H2_4 C4_4 1_555 1_555
C5_4 C4_4 1_555 1_555
C6_4 C1_4 1_555 1_555
H3_4 C6_4 1_555 1_555
C7_4 C1_4 1_555 1_555
C8_4 C3_4 1_555 1_555
C9_4 C5_4 1_555 1_555
In12 O4_4 1_555 1_555
O4_4 C7_4 1_555 1_555
O43_2 C7_4 1_555 1_555
O46 C8_4 1_555 1_555
O53 C8_4 1_555 1_555
O8_4 C9_4 1_555 1_555
O58_2 In12 1_555 1_555
O10_4 In12 1_555 1_555
C10_4 C11_4 1_555 1_555
C11_4 H6_4 1_555 1_555
C12_4 C11_4 1_555 1_555
C13_4 C12_4 1_555 1_555
H7_4 C13_4 1_555 1_555
C14_4 C13_4 1_555 1_555
C15_4 C10_4 1_555 1_555
H8_4 C15_4 1_555 1_555
C16_4 C10_4 1_555 1_555
C17_4 C12_4 1_555 1_555
C18_4 C9_4 1_555 1_555
O11_4 C16_4 1_555 1_555
O12_4 C16_4 1_555 1_555
O46_4 C17_4 1_555 1_555
O54_2 C17_4 1_555 1_555
O15_4 C18_4 1_555 1_555
In14 O11_4 1_555 1_555
O16_4 In14 1_555 1_555
O17_4 In14 1_555 1_555
In16 O12_4 1_555 1_555
O35_4 In16 1_555 1_555
O41_6 In20 1_555 1_555
In19_2 O16_4 1_555 1_555
O42_6 In20 1_555 1_555
O44_4 In12 1_555 1_555
O45_4 In14 1_555 1_555
C5_4 C6_4 1_555 1_555
C14_4 C15_4 1_555 1_555
C14_4 C18_4 1_555 1_555
O16_4 In16 1_555 1_555
O41_7 In19 1_555 1_555
O42_7 In19 1_555 1_555
O41_8 In19_2 1_555 1_555
O42_8 In19_2 1_555 1_555
C19_4 C20_4 1_555 1_555
C20_4 H11_4 1_555 1_555
C21_4 C20_4 1_555 1_555
C22_4 C21_4 1_555 1_555
H12_4 C22_4 1_555 1_555
C23_4 C22_4 1_555 1_555
C24_4 C19_4 1_555 1_555
H13_4 C24_4 1_555 1_555
C25_4 C19_4 1_555 1_555
C26_4 C21_4 1_555 1_555
C27_4 C23_4 1_555 1_555
O42_5 C25_4 1_555 1_555
O44_3 C25_4 1_555 1_555
O51_2 C26_4 1_555 1_555
O57_4 C26_4 1_555 1_555
O22_4 C27_4 1_555 1_555
C28_4 C29_4 1_555 1_555
C29_4 H16_4 1_555 1_555
C30_4 C29_4 1_555 1_555
C31_4 C30_4 1_555 1_555
H17_4 C31_4 1_555 1_555
C32_4 C31_4 1_555 1_555
C33_4 C28_4 1_555 1_555
H18_4 C33_4 1_555 1_555
C34_4 C28_4 1_555 1_555
C35_4 C30_4 1_555 1_555
C36_4 C27_4 1_555 1_555
O42_8 C34_4 1_555 1_555
O45_4 C34_4 1_555 1_555
O50_2 C35_4 1_555 1_555
O57_2 C35_4 1_555 1_555
O28_4 C36_4 1_555 1_555
C37_4 C38_4 1_555 1_555
C38_4 H21_4 1_555 1_555
C39_4 C38_4 1_555 1_555
C40_4 C39_4 1_555 1_555
H22_4 C40_4 1_555 1_555
C41_4 C40_4 1_555 1_555
C42_4 C37_4 1_555 1_555
H23_4 C42_4 1_555 1_555
C43_4 C37_4 1_555 1_555
C44_4 C39_4 1_555 1_555
C45_4 C41_4 1_555 1_555
O42_6 C43_4 1_555 1_555
O44_4 C43_4 1_555 1_555
O51 C44_4 1_555 1_555
O57_3 C44_4 1_555 1_555
O34_4 C45_4 1_555 1_555
C46_4 C47_4 1_555 1_555
C47_4 H26_4 1_555 1_555
C48_4 C47_4 1_555 1_555
C49_4 C48_4 1_555 1_555
H27_4 C49_4 1_555 1_555
C50_4 C49_4 1_555 1_555
C51_4 C46_4 1_555 1_555
H28_4 C51_4 1_555 1_555
C52_4 C46_4 1_555 1_555
C53_4 C48_4 1_555 1_555
C54_4 C45_4 1_555 1_555
O42_7 C52_4 1_555 1_555
O45_3 C52_4 1_555 1_555
O50 C53_4 1_555 1_555
O57 C53_4 1_555 1_555
O40_4 C54_4 1_555 1_555
C23_4 C24_4 1_555 1_555
C32_4 C33_4 1_555 1_555
C32_4 C36_4 1_555 1_555
C41_4 C42_4 1_555 1_555
C50_4 C51_4 1_555 1_555
C50_4 C54_4 1_555 1_555

#END
