
###############################################################################
#
# This file contains modified crystal structure data generated from the
# MOF subset of the Cambridge Structural Database (CSD) v542 
# hosted by the Cambridge Crystallographic Data Centre (CCDC).
#
# This work is licensed under the Creative Commons
# Attribution-NonCommercial-ShareAlike 4.0 International License.
# To view a copy of this license, visit
# http://creativecommons.org/licenses/by-nc-sa/4.0/
# or send a letter to
# Creative Commons, PO Box 1866, Mountain View, CA 94042, USA.
#
# CIF created using the CSD Python API on 22 February 2021
# The structure has been converted into the P1 space group
# The structure has a 3D framework
# The original CSD entry UDANEV is in the cubic crystal system
# The original CSD entry UDANEV is in a Sohncke space group
# The framework has been calculated to contain at least 10.0% void space
# The void calculation uses a probe of radius 1.32A, grid spacing 0.4
#
###############################################################################

data_UDANEV
_chemical_formula_moiety         '(C120 H120 In44 N48 O144)n'
_symmetry_cell_setting           triclinic
_symmetry_space_group_name_H-M   'P 1'
_symmetry_Int_Tables_number      1
_space_group_name_Hall           'P 1'
loop_
_symmetry_equiv_pos_site_id
_symmetry_equiv_pos_as_xyz
1 x,y,z
_cell_length_a                   24.969(2)
_cell_length_b                   24.969(2)
_cell_length_c                   24.969(2)
_cell_angle_alpha                90
_cell_angle_beta                 90
_cell_angle_gamma                90
_cell_volume                     15566.9
loop_
_atom_site_label
_atom_site_type_symbol
_atom_site_fract_x
_atom_site_fract_y
_atom_site_fract_z
In1 In 0.44600(8) 0.0000 0.2500
N1 N 0.4742(6) 0.0802(4) 0.2434(6)
O1 O 0.5770(5) 0.0654(4) 0.3460(4)
O2 O 0.5195(5) 0.0104(4) 0.3070(4)
O3 O 0.3901(6) 0.0192(5) 0.3272(5)
C1 C 0.4650(7) 0.1250 0.2150(7)
H3 H 0.4386 0.1250 0.1886
C2 C 0.5146(7) 0.0985(5) 0.2773(7)
C3 C 0.5385(8) 0.0547(8) 0.3136(8)
In2 In 0.6250 0.1250 0.3750
N2 N 0.4934(6) 0.1698(4) 0.2242(6)
C4 C 0.5273(7) 0.1515(5) 0.2646(7)
O4 O 0.5960(4) 0.1846(4) 0.3270(5)
O5 O 0.5570(4) 0.2396(4) 0.2695(5)
C5 C 0.5636(8) 0.1953(8) 0.2885(8)
O6 O 0.6540(4) 0.0770(5) 0.4346(4)
O7 O 0.6930(4) 0.0195(5) 0.4896(4)
C7 C 0.7227(7) 0.0146(7) 0.4015(5)
C8 C 0.6864(8) 0.0385(8) 0.4453(8)
C9 C 0.7354(7) 0.0273(7) 0.3485(5)
O9 O 0.6730(5) 0.0960(4) 0.3154(4)
O10 O 0.7305(5) 0.0570(4) 0.2604(4)
C10 C 0.7115(8) 0.0636(8) 0.3047(8)
N5 N 0.5802(4) 0.2566(6) 0.5258(6)
O11 O 0.5654(4) 0.1540(4) 0.4230(5)
O12 O 0.5104(4) 0.1930(4) 0.4805(5)
C11 C 0.6250 0.2850(7) 0.5350(7)
H7 H 0.6250 0.3114 0.5614
C12 C 0.5985(5) 0.2227(7) 0.4854(7)
C13 C 0.5547(8) 0.1864(8) 0.4615(8)
N6 N 0.6698(4) 0.2758(6) 0.5066(6)
C14 C 0.6515(5) 0.2354(7) 0.4727(7)
O13 O 0.6846(4) 0.1730(5) 0.4040(4)
O14 O 0.7396(4) 0.2305(5) 0.4430(4)
C15 C 0.6953(8) 0.2115(8) 0.4364(8)
In4 In 0.80400(8) 0.0000 0.2500
O15 O 0.8599(6) 0.0772(5) 0.2692(5)
In5 In 0.5000 0.2500 0.55400(8)
In6 In 0.7500 0.30400(8) 0.5000
In7 In 0.5000 0.2500 0.19600(8)
N9 N 0.7758(6) 0.0066(6) 0.1698(4)
O20 O 0.8070(4) 0.0195(5) 0.5104(4)
In1_2 In 0.44600(8) 1.0000 0.2500
In3 In 0.7500 0.94600(8) 0.5000
N3 N 0.7566(6) 0.9742(6) 0.4198(4)
O8 O 0.6728(5) 0.8901(6) 0.4808(5)
C6 C 0.7850(7) 0.9650(7) 0.3750
H6 H 0.8114 0.9386 0.3750
N4 N 0.7758(6) 0.9934(6) 0.3302(4)
In4_2 In 0.80400(8) 1.0000 0.2500
O16 O 0.3901(6) 0.9808(5) 0.1728(5)
O17 O 0.8272(5) 0.8901(6) 0.5192(5)
O18 O 0.8599(6) 0.9228(5) 0.2308(5)
N7 N 0.4742(6) 0.9198(4) 0.2566(6)
N8 N 0.7434(6) 0.9742(6) 0.5802(4)
O19 O 0.5195(5) 0.9896(4) 0.1930(4)
O21 O 0.7305(5) 0.9430(4) 0.2396(4)
In1_3 In 0.05400(8) -0.0000 0.7500
O16_2 O 0.1099(6) 0.0192(5) 0.6728(5)
N7_2 N 0.0258(6) 0.0802(4) 0.7566(6)
In5_2 In 0.0000 0.7500 0.05400(8)
In1_4 In 0.05400(8) 1.0000 0.7500
N1_2 N 0.0258(6) 0.9198(4) 0.7434(6)
O3_2 O 0.1099(6) 0.9808(5) 0.8272(5)
C1_2 C 0.0350(7) 0.8750 0.7150(7)
H3_2 H 0.0614 0.8750 0.6886
N2_2 N 0.0066(6) 0.8302(4) 0.7242(6)
In7_2 In -0.0000 0.7500 0.69600(8)
In3_2 In 0.7500 0.05400(8) 0.0000
O17_2 O 0.6728(5) 0.1099(6) 0.0192(5)
N8_2 N 0.7566(6) 0.0258(6) 0.0802(4)
In3_3 In 0.7500 0.05400(8) 1.0000
N3_2 N 0.7434(6) 0.0258(6) 0.9198(4)
O8_2 O 0.8272(5) 0.1099(6) 0.9808(5)
C6_2 C 0.7150(7) 0.0350(7) 0.8750
H6_2 H 0.6886 0.0614 0.8750
N4_2 N 0.7242(6) 0.0066(6) 0.8302(4)
In4_3 In 0.69600(8) -0.0000 0.7500
O18_2 O 0.6401(6) 0.0772(5) 0.7308(5)
O19_2 O 0.9805(5) 0.0104(4) 0.6930(4)
O21_2 O 0.7695(5) 0.0570(4) 0.7396(4)
N5_2 N 0.9198(4) 0.7434(6) 0.0258(6)
C11_2 C 0.8750 0.7150(7) 0.0350(7)
H7_2 H 0.8750 0.6886 0.0614
N6_2 N 0.8302(4) 0.7242(6) 0.0066(6)
In5_3 In 1.0000 0.7500 0.05400(8)
In6_2 In 0.7500 0.69600(8) 0.0000
O20_2 O 0.6930(4) 0.9805(5) 0.0104(4)
O1_2 O 0.9230(5) 0.9346(4) 0.8460(4)
O2_2 O 0.9805(5) 0.9896(4) 0.8070(4)
C2_2 C 0.9854(7) 0.9015(5) 0.7773(7)
C3_2 C 0.9615(8) 0.9453(8) 0.8136(8)
In2_2 In 0.8750 0.8750 0.8750
C4_2 C 0.9727(7) 0.8485(5) 0.7646(7)
O4_2 O 0.9040(4) 0.8154(4) 0.8270(5)
O5_2 O 0.9430(4) 0.7604(4) 0.7695(5)
C5_2 C 0.9364(8) 0.8047(8) 0.7885(8)
O6_2 O 0.8460(4) 0.9230(5) 0.9346(4)
O7_2 O 0.8070(4) 0.9805(5) 0.9896(4)
C7_2 C 0.7773(7) 0.9854(7) 0.9015(5)
C8_2 C 0.8136(8) 0.9615(8) 0.9453(8)
C9_2 C 0.7646(7) 0.9727(7) 0.8485(5)
O9_2 O 0.8270(5) 0.9040(4) 0.8154(4)
O10_2 O 0.7695(5) 0.9430(4) 0.7604(4)
C10_2 C 0.7885(8) 0.9364(8) 0.8047(8)
O11_2 O 0.9346(4) 0.8460(4) 0.9230(5)
O12_2 O 0.9896(4) 0.8070(4) 0.9805(5)
C12_2 C 0.9015(5) 0.7773(7) 0.9854(7)
C13_2 C 0.9453(8) 0.8136(8) 0.9615(8)
C14_2 C 0.8485(5) 0.7646(7) 0.9727(7)
O13_2 O 0.8154(4) 0.8270(5) 0.9040(4)
O14_2 O 0.7604(4) 0.7695(5) 0.9430(4)
C15_2 C 0.8047(8) 0.7885(8) 0.9364(8)
In4_4 In 0.69600(8) 1.0000 0.7500
O15_2 O 0.6401(6) 0.9228(5) 0.7692(5)
In6_3 In 0.7500 0.69600(8) 1.0000
In7_3 In 1.0000 0.7500 0.69600(8)
N9_2 N 0.7242(6) 0.9934(6) 0.6698(4)
In1_5 In 0.55400(8) 0.5000 0.2500
N1_3 N 0.5258(6) 0.5802(4) 0.2566(6)
O1_3 O 0.4230(5) 0.5654(4) 0.1540(4)
O2_3 O 0.4805(5) 0.5104(4) 0.1930(4)
O3_3 O 0.6099(6) 0.5192(5) 0.1728(5)
C1_3 C 0.5350(7) 0.6250 0.2850(7)
H3_3 H 0.5614 0.6250 0.3114
C2_3 C 0.4854(7) 0.5985(5) 0.2227(7)
C3_3 C 0.4615(8) 0.5547(8) 0.1864(8)
In2_3 In 0.3750 0.6250 0.1250
N2_3 N 0.5066(6) 0.6698(4) 0.2758(6)
C4_3 C 0.4727(7) 0.6515(5) 0.2354(7)
O4_3 O 0.4040(4) 0.6846(4) 0.1730(5)
O5_3 O 0.4430(4) 0.7396(4) 0.2305(5)
C5_3 C 0.4364(8) 0.6953(8) 0.2115(8)
In3_4 In 0.2500 0.44600(8) 0.0000
N3_3 N 0.2434(6) 0.4742(6) 0.0802(4)
O6_3 O 0.3460(4) 0.5770(5) 0.0654(4)
O7_3 O 0.3070(4) 0.5195(5) 0.0104(4)
O8_3 O 0.3272(5) 0.3901(6) 0.0192(5)
C6_3 C 0.2150(7) 0.4650(7) 0.1250
H6_3 H 0.1886 0.4386 0.1250
C7_3 C 0.2773(7) 0.5146(7) 0.0985(5)
C8_3 C 0.3136(8) 0.5385(8) 0.0547(8)
N4_3 N 0.2242(6) 0.4934(6) 0.1698(4)
C9_3 C 0.2646(7) 0.5273(7) 0.1515(5)
O9_3 O 0.3270(5) 0.5960(4) 0.1846(4)
O10_3 O 0.2695(5) 0.5570(4) 0.2396(4)
C10_3 C 0.2885(8) 0.5636(8) 0.1953(8)
O11_3 O 0.4346(4) 0.6540(4) 0.0770(5)
O12_3 O 0.4896(4) 0.6930(4) 0.0195(5)
C12_3 C 0.4015(5) 0.7227(7) 0.0146(7)
C13_3 C 0.4453(8) 0.6864(8) 0.0385(8)
C14_3 C 0.3485(5) 0.7354(7) 0.0273(7)
O13_3 O 0.3154(4) 0.6730(5) 0.0960(4)
O14_3 O 0.2604(4) 0.7305(5) 0.0570(4)
C15_3 C 0.3047(8) 0.7115(8) 0.0636(8)
In4_5 In 0.19600(8) 0.5000 0.2500
O15_3 O 0.1401(6) 0.5772(5) 0.2308(5)
O16_3 O 0.6099(6) 0.4808(5) 0.3272(5)
O18_3 O 0.1401(6) 0.4228(5) 0.2692(5)
In6_4 In 0.2500 0.80400(8) 0.0000
In7_4 In 0.5000 0.7500 0.30400(8)
N7_3 N 0.5258(6) 0.4198(4) 0.2434(6)
N9_3 N 0.2242(6) 0.5066(6) 0.3302(4)
O19_3 O 0.4805(5) 0.4896(4) 0.3070(4)
O21_3 O 0.2695(5) 0.4430(4) 0.2604(4)
In3_5 In 0.2500 0.44600(8) 1.0000
N5_3 N 0.4198(4) 0.7566(6) 0.9742(6)
C11_3 C 0.3750 0.7850(7) 0.9650(7)
H7_3 H 0.3750 0.8114 0.9386
N6_3 N 0.3302(4) 0.7758(6) 0.9934(6)
O17_3 O 0.1728(5) 0.3901(6) 0.9808(5)
In5_4 In 0.5000 0.7500 0.94600(8)
In6_5 In 0.2500 0.80400(8) 1.0000
N8_3 N 0.2566(6) 0.4742(6) 0.9198(4)
O20_3 O 0.1930(4) 0.5195(5) 0.9896(4)
O1_4 O 0.0770(5) 0.4346(4) 0.6540(4)
O2_4 O 0.0195(5) 0.4896(4) 0.6930(4)
C2_4 C 0.0146(7) 0.4015(5) 0.7227(7)
C3_4 C 0.0385(8) 0.4453(8) 0.6864(8)
In2_4 In 0.1250 0.3750 0.6250
C4_4 C 0.0273(7) 0.3485(5) 0.7354(7)
O4_4 O 0.0960(4) 0.3154(4) 0.6730(5)
O5_4 O 0.0570(4) 0.2604(4) 0.7305(5)
C5_4 C 0.0636(8) 0.3047(8) 0.7115(8)
In3_6 In 0.2500 0.55400(8) 0.5000
N3_4 N 0.2566(6) 0.5258(6) 0.5802(4)
O6_4 O 0.1540(4) 0.4230(5) 0.5654(4)
O7_4 O 0.1930(4) 0.4805(5) 0.5104(4)
O8_4 O 0.1728(5) 0.6099(6) 0.5192(5)
C6_4 C 0.2850(7) 0.5350(7) 0.6250
H6_4 H 0.3114 0.5614 0.6250
C7_4 C 0.2227(7) 0.4854(7) 0.5985(5)
C8_4 C 0.1864(8) 0.4615(8) 0.5547(8)
N4_4 N 0.2758(6) 0.5066(6) 0.6698(4)
C9_4 C 0.2354(7) 0.4727(7) 0.6515(5)
O9_4 O 0.1730(5) 0.4040(4) 0.6846(4)
O10_4 O 0.2305(5) 0.4430(4) 0.7396(4)
C10_4 C 0.2115(8) 0.4364(8) 0.6953(8)
N5_4 N 0.0802(4) 0.2434(6) 0.4742(6)
O11_4 O 0.0654(4) 0.3460(4) 0.5770(5)
O12_4 O 0.0104(4) 0.3070(4) 0.5195(5)
C11_4 C 0.1250 0.2150(7) 0.4650(7)
H7_4 H 0.1250 0.1886 0.4386
C12_4 C 0.0985(5) 0.2773(7) 0.5146(7)
C13_4 C 0.0547(8) 0.3136(8) 0.5385(8)
N6_4 N 0.1698(4) 0.2242(6) 0.4934(6)
C14_4 C 0.1515(5) 0.2646(7) 0.5273(7)
O13_4 O 0.1846(4) 0.3270(5) 0.5960(4)
O14_4 O 0.2396(4) 0.2695(5) 0.5570(4)
C15_4 C 0.1953(8) 0.2885(8) 0.5636(8)
In4_6 In 0.30400(8) 0.5000 0.7500
O15_4 O 0.3599(6) 0.4228(5) 0.7308(5)
O17_4 O 0.3272(5) 0.6099(6) 0.4808(5)
O18_4 O 0.3599(6) 0.5772(5) 0.7692(5)
In5_5 In -0.0000 0.2500 0.44600(8)
In6_6 In 0.2500 0.19600(8) 0.5000
In7_5 In -0.0000 0.2500 0.80400(8)
N8_4 N 0.2434(6) 0.5258(6) 0.4198(4)
N9_4 N 0.2758(6) 0.4934(6) 0.8302(4)
O19_4 O 0.0195(5) 0.5104(4) 0.8070(4)
O20_4 O 0.3070(4) 0.4805(5) 0.4896(4)
O21_4 O 0.2305(5) 0.5570(4) 0.7604(4)
In1_6 In 0.94600(8) 0.5000 0.7500
N1_4 N 0.9742(6) 0.4198(4) 0.7566(6)
O3_4 O 0.8901(6) 0.4808(5) 0.6728(5)
C1_4 C 0.9650(7) 0.3750 0.7850(7)
H3_4 H 0.9386 0.3750 0.8114
N2_4 N 0.9934(6) 0.3302(4) 0.7758(6)
O16_4 O 0.8901(6) 0.5192(5) 0.8272(5)
In5_6 In 1.0000 0.2500 0.44600(8)
In7_6 In 1.0000 0.2500 0.80400(8)
N7_4 N 0.9742(6) 0.5802(4) 0.7434(6)
O15_5 O 0.2692(5) 0.8599(6) 0.0772(5)
N9_5 N 0.1698(4) 0.7758(6) 0.0066(6)
O20_5 O 0.5104(4) 0.8070(4) 0.0195(5)
O8_5 O 0.4808(5) 0.6728(5) 0.8901(6)
O17_5 O 0.5192(5) 0.8272(5) 0.8901(6)
O18_5 O 0.2308(5) 0.8599(6) 0.9228(5)
N8_5 N 0.5802(4) 0.7434(6) 0.9742(6)
O21_5 O 0.2396(4) 0.7305(5) 0.9430(4)
O17_6 O 0.0192(5) 0.6728(5) 0.1099(6)
N8_6 N 0.0802(4) 0.7566(6) 0.0258(6)
O20_6 O 0.0104(4) 0.6930(4) 0.9805(5)
O8_6 O 0.9808(5) 0.8272(5) 0.1099(6)
O18_6 O 0.7308(5) 0.6401(6) 0.0772(5)
O21_6 O 0.7396(4) 0.7695(5) 0.0570(4)
O15_6 O 0.7692(5) 0.6401(6) 0.9228(5)
N9_6 N 0.6698(4) 0.7242(6) 0.9934(6)
O8_7 O 0.0192(5) 0.3272(5) 0.3901(6)
O15_7 O 0.2308(5) 0.1401(6) 0.5772(5)
O18_7 O 0.2692(5) 0.1401(6) 0.4228(5)
N9_7 N 0.3302(4) 0.2242(6) 0.5066(6)
O21_7 O 0.2604(4) 0.2695(5) 0.4430(4)
O17_7 O 0.9808(5) 0.1728(5) 0.3901(6)
N8_7 N 0.9198(4) 0.2566(6) 0.4742(6)
O20_7 O 0.9896(4) 0.1930(4) 0.5195(5)
O8_8 O 0.5192(5) 0.1728(5) 0.6099(6)
O15_8 O 0.7308(5) 0.3599(6) 0.4228(5)
O17_8 O 0.4808(5) 0.3272(5) 0.6099(6)
O18_8 O 0.7692(5) 0.3599(6) 0.5772(5)
N8_8 N 0.4198(4) 0.2434(6) 0.5258(6)
N9_8 N 0.8302(4) 0.2758(6) 0.4934(6)
O20_8 O 0.4896(4) 0.3070(4) 0.4805(5)
O21_8 O 0.7604(4) 0.2305(5) 0.5570(4)
O15_9 O 0.0772(5) 0.2692(5) 0.8599(6)
N9_9 N 0.0066(6) 0.1698(4) 0.7758(6)
O18_9 O 0.9228(5) 0.2308(5) 0.8599(6)
O21_9 O 0.9430(4) 0.2396(4) 0.7305(5)
O18_10 O 0.0772(5) 0.7308(5) 0.6401(6)
O21_10 O 0.0570(4) 0.7396(4) 0.7695(5)
O15_10 O 0.9228(5) 0.7692(5) 0.6401(6)
N9_10 N 0.9934(6) 0.6698(4) 0.7242(6)
O15_11 O 0.5772(5) 0.2308(5) 0.1401(6)
O18_11 O 0.4228(5) 0.2692(5) 0.1401(6)
N9_11 N 0.5066(6) 0.3302(4) 0.2242(6)
O21_11 O 0.4430(4) 0.2604(4) 0.2695(5)
O15_12 O 0.4228(5) 0.7308(5) 0.3599(6)
O18_12 O 0.5772(5) 0.7692(5) 0.3599(6)
N9_12 N 0.4934(6) 0.8302(4) 0.2758(6)
O21_12 O 0.5570(4) 0.7604(4) 0.2305(5)
C11_5 C 0.1250 0.7850(7) 0.0350(7)
H7_5 H 0.1250 0.8114 0.0614
O1_5 O 0.0770(5) 0.5654(4) 0.8460(4)
C2_5 C 0.0146(7) 0.5985(5) 0.7773(7)
C3_5 C 0.0385(8) 0.5547(8) 0.8136(8)
In2_5 In 0.1250 0.6250 0.8750
C4_5 C 0.0273(7) 0.6515(5) 0.7646(7)
O4_5 O 0.0960(4) 0.6846(4) 0.8270(5)
C5_5 C 0.0636(8) 0.6953(8) 0.7885(8)
O6_5 O 0.1540(4) 0.5770(5) 0.9346(4)
C6_5 C 0.2850(7) 0.4650(7) 0.8750
H6_5 H 0.3114 0.4386 0.8750
C7_5 C 0.2227(7) 0.5146(7) 0.9015(5)
C8_5 C 0.1864(8) 0.5385(8) 0.9453(8)
C9_5 C 0.2354(7) 0.5273(7) 0.8485(5)
O9_5 O 0.1730(5) 0.5960(4) 0.8154(4)
C10_5 C 0.2115(8) 0.5636(8) 0.8047(8)
O11_5 O 0.0654(4) 0.6540(4) 0.9230(5)
C12_5 C 0.0985(5) 0.7227(7) 0.9854(7)
C13_5 C 0.0547(8) 0.6864(8) 0.9615(8)
C14_5 C 0.1515(5) 0.7354(7) 0.9727(7)
O13_5 O 0.1846(4) 0.6730(5) 0.9040(4)
C15_5 C 0.1953(8) 0.7115(8) 0.9364(8)
C1_5 C 0.9650(7) 0.6250 0.7150(7)
H3_5 H 0.9386 0.6250 0.6886
O1_6 O 0.4230(5) 0.4346(4) 0.3460(4)
C1_6 C 0.5350(7) 0.3750 0.2150(7)
H3_6 H 0.5614 0.3750 0.1886
C2_6 C 0.4854(7) 0.4015(5) 0.2773(7)
C3_6 C 0.4615(8) 0.4453(8) 0.3136(8)
In2_6 In 0.3750 0.3750 0.3750
C4_6 C 0.4727(7) 0.3485(5) 0.2646(7)
O4_6 O 0.4040(4) 0.3154(4) 0.3270(5)
C5_6 C 0.4364(8) 0.3047(8) 0.2885(8)
O6_6 O 0.3460(4) 0.4230(5) 0.4346(4)
C6_6 C 0.2150(7) 0.5350(7) 0.3750
H6_6 H 0.1886 0.5614 0.3750
C7_6 C 0.2773(7) 0.4854(7) 0.4015(5)
C8_6 C 0.3136(8) 0.4615(8) 0.4453(8)
C9_6 C 0.2646(7) 0.4727(7) 0.3485(5)
O9_6 O 0.3270(5) 0.4040(4) 0.3154(4)
C10_6 C 0.2885(8) 0.4364(8) 0.3047(8)
O11_6 O 0.4346(4) 0.3460(4) 0.4230(5)
C11_6 C 0.3750 0.2150(7) 0.5350(7)
H7_6 H 0.3750 0.1886 0.5614
C12_6 C 0.4015(5) 0.2773(7) 0.4854(7)
C13_6 C 0.4453(8) 0.3136(8) 0.4615(8)
C14_6 C 0.3485(5) 0.2646(7) 0.4727(7)
O13_6 O 0.3154(4) 0.3270(5) 0.4040(4)
C15_6 C 0.3047(8) 0.2885(8) 0.4364(8)
C1_7 C 0.0350(7) 0.1250 0.7850(7)
H3_7 H 0.0614 0.1250 0.8114
O1_7 O 0.9230(5) 0.0654(4) 0.6540(4)
C2_7 C 0.9854(7) 0.0985(5) 0.7227(7)
C3_7 C 0.9615(8) 0.0547(8) 0.6864(8)
In2_7 In 0.8750 0.1250 0.6250
C4_7 C 0.9727(7) 0.1515(5) 0.7354(7)
O4_7 O 0.9040(4) 0.1846(4) 0.6730(5)
C5_7 C 0.9364(8) 0.1953(8) 0.7115(8)
O6_7 O 0.8460(4) 0.0770(5) 0.5654(4)
C7_7 C 0.7773(7) 0.0146(7) 0.5985(5)
C8_7 C 0.8136(8) 0.0385(8) 0.5547(8)
C9_7 C 0.7646(7) 0.0273(7) 0.6515(5)
O9_7 O 0.8270(5) 0.0960(4) 0.6846(4)
C10_7 C 0.7885(8) 0.0636(8) 0.6953(8)
O11_7 O 0.9346(4) 0.1540(4) 0.5770(5)
C11_7 C 0.8750 0.2850(7) 0.4650(7)
H7_7 H 0.8750 0.3114 0.4386
C12_7 C 0.9015(5) 0.2227(7) 0.5146(7)
C13_7 C 0.9453(8) 0.1864(8) 0.5385(8)
C14_7 C 0.8485(5) 0.2354(7) 0.5273(7)
O13_7 O 0.8154(4) 0.1730(5) 0.5960(4)
C15_7 C 0.8047(8) 0.2115(8) 0.5636(8)
C6_7 C 0.7150(7) 0.9650(7) 0.6250
H6_7 H 0.6886 0.9386 0.6250
C6_8 C 0.7850(7) 0.0350(7) 0.1250
H6_8 H 0.8114 0.0614 0.1250
O1_8 O 0.5770(5) 0.9346(4) 0.1540(4)
C1_8 C 0.4650(7) 0.8750 0.2850(7)
H3_8 H 0.4386 0.8750 0.3114
C2_8 C 0.5146(7) 0.9015(5) 0.2227(7)
C3_8 C 0.5385(8) 0.9453(8) 0.1864(8)
In2_8 In 0.6250 0.8750 0.1250
C4_8 C 0.5273(7) 0.8485(5) 0.2354(7)
O4_8 O 0.5960(4) 0.8154(4) 0.1730(5)
C5_8 C 0.5636(8) 0.8047(8) 0.2115(8)
O6_8 O 0.6540(4) 0.9230(5) 0.0654(4)
C7_8 C 0.7227(7) 0.9854(7) 0.0985(5)
C8_8 C 0.6864(8) 0.9615(8) 0.0547(8)
C9_8 C 0.7354(7) 0.9727(7) 0.1515(5)
O9_8 O 0.6730(5) 0.9040(4) 0.1846(4)
C10_8 C 0.7115(8) 0.9364(8) 0.1953(8)
O11_8 O 0.5654(4) 0.8460(4) 0.0770(5)
C12_8 C 0.5985(5) 0.7773(7) 0.0146(7)
C13_8 C 0.5547(8) 0.8136(8) 0.0385(8)
C14_8 C 0.6515(5) 0.7646(7) 0.0273(7)
O13_8 O 0.6846(4) 0.8270(5) 0.0960(4)
C15_8 C 0.6953(8) 0.7885(8) 0.0636(8)
C11_8 C 0.6250 0.7150(7) 0.9650(7)
H7_8 H 0.6250 0.6886 0.9386
loop_
_geom_bond_atom_site_label_1
_geom_bond_atom_site_label_2
_geom_bond_site_symmetry_1
_geom_bond_site_symmetry_2
In1 N1 1_555 1_555
N1 C1 1_555 1_555
O1 C3 1_555 1_555
O2 In1 1_555 1_555
O3 In1 1_555 1_555
C1 H3 1_555 1_555
C2 N1 1_555 1_555
C3 O2 1_555 1_555
In2 O1 1_555 1_555
N2 C1 1_555 1_555
C4 C2 1_555 1_555
O4 In2 1_555 1_555
O5 C5 1_555 1_555
C5 C4 1_555 1_555
O6 In2 1_555 1_555
C8 O6 1_555 1_555
C9 C7 1_555 1_555
O9 In2 1_555 1_555
O10 C10 1_555 1_555
C10 C9 1_555 1_555
N5 C11 1_555 1_555
O11 In2 1_555 1_555
O12 C13 1_555 1_555
C11 H7 1_555 1_555
C12 N5 1_555 1_555
C13 O11 1_555 1_555
N6 C11 1_555 1_555
C14 C12 1_555 1_555
O13 In2 1_555 1_555
O14 C15 1_555 1_555
C15 C14 1_555 1_555
O15 In4 1_555 1_555
In5 N5 1_555 1_555
In6 N6 1_555 1_555
In7 N2 1_555 1_555
N9 In4 1_555 1_555
C2 C3 1_555 1_555
N2 C4 1_555 1_555
O4 C5 1_555 1_555
O5 In7 1_555 1_555
O7 C8 1_555 1_555
C7 C8 1_555 1_555
O9 C10 1_555 1_555
O10 In4 1_555 1_555
O12 In5 1_555 1_555
C12 C13 1_555 1_555
N6 C14 1_555 1_555
O13 C15 1_555 1_555
O14 In6 1_555 1_555
In3 N3 1_555 1_555
N3 C6 1_555 1_555
O8 In3 1_555 1_555
C6 H6 1_555 1_555
N4 C6 1_555 1_555
In4_2 N4 1_555 1_555
O16 In1_2 1_555 1_555
O17 In3 1_555 1_555
O18 In4_2 1_555 1_555
N7 In1_2 1_555 1_555
N8 In3 1_555 1_555
O19 In1_2 1_555 1_555
O21 In4_2 1_555 1_555
O16_2 In1_3 1_555 1_555
N7_2 In1_3 1_555 1_555
In1_4 N1_2 1_555 1_555
N1_2 C1_2 1_555 1_555
O3_2 In1_4 1_555 1_555
C1_2 H3_2 1_555 1_555
N2_2 C1_2 1_555 1_555
In7_2 N2_2 1_555 1_555
O17_2 In3_2 1_555 1_555
N8_2 In3_2 1_555 1_555
In3_3 N3_2 1_555 1_555
N3_2 C6_2 1_555 1_555
O8_2 In3_3 1_555 1_555
C6_2 H6_2 1_555 1_555
N4_2 C6_2 1_555 1_555
In4_3 N4_2 1_555 1_555
O18_2 In4_3 1_555 1_555
O21_2 In4_3 1_555 1_555
N5_2 C11_2 1_555 1_555
C11_2 H7_2 1_555 1_555
N6_2 C11_2 1_555 1_555
In5_3 N5_2 1_555 1_555
In6_2 N6_2 1_555 1_555
O1_2 C3_2 1_555 1_555
C3_2 O2_2 1_555 1_555
In2_2 O1_2 1_555 1_555
C4_2 C2_2 1_555 1_555
O4_2 In2_2 1_555 1_555
O5_2 C5_2 1_555 1_555
C5_2 C4_2 1_555 1_555
O6_2 In2_2 1_555 1_555
C8_2 O6_2 1_555 1_555
C9_2 C7_2 1_555 1_555
O9_2 In2_2 1_555 1_555
O10_2 C10_2 1_555 1_555
C10_2 C9_2 1_555 1_555
O11_2 In2_2 1_555 1_555
O12_2 C13_2 1_555 1_555
C13_2 O11_2 1_555 1_555
C14_2 C12_2 1_555 1_555
O13_2 In2_2 1_555 1_555
O14_2 C15_2 1_555 1_555
C15_2 C14_2 1_555 1_555
O15_2 In4_4 1_555 1_555
N9_2 In4_4 1_555 1_555
C2_2 C3_2 1_555 1_555
O4_2 C5_2 1_555 1_555
O5_2 In7_3 1_555 1_555
O7_2 C8_2 1_555 1_555
C7_2 C8_2 1_555 1_555
O9_2 C10_2 1_555 1_555
O10_2 In4_4 1_555 1_555
C12_2 C13_2 1_555 1_555
O13_2 C15_2 1_555 1_555
O14_2 In6_3 1_555 1_555
In1_5 N1_3 1_555 1_555
N1_3 C1_3 1_555 1_555
O1_3 C3_3 1_555 1_555
O2_3 In1_5 1_555 1_555
O3_3 In1_5 1_555 1_555
C1_3 H3_3 1_555 1_555
C2_3 N1_3 1_555 1_555
C3_3 O2_3 1_555 1_555
In2_3 O1_3 1_555 1_555
N2_3 C1_3 1_555 1_555
C4_3 C2_3 1_555 1_555
O4_3 In2_3 1_555 1_555
O5_3 C5_3 1_555 1_555
C5_3 C4_3 1_555 1_555
In3_4 N3_3 1_555 1_555
N3_3 C6_3 1_555 1_555
O6_3 In2_3 1_555 1_555
O7_3 In3_4 1_555 1_555
O8_3 In3_4 1_555 1_555
C6_3 H6_3 1_555 1_555
C7_3 N3_3 1_555 1_555
C8_3 O6_3 1_555 1_555
N4_3 C6_3 1_555 1_555
C9_3 C7_3 1_555 1_555
O9_3 In2_3 1_555 1_555
O10_3 C10_3 1_555 1_555
C10_3 C9_3 1_555 1_555
O11_3 In2_3 1_555 1_555
O12_3 C13_3 1_555 1_555
C13_3 O11_3 1_555 1_555
C14_3 C12_3 1_555 1_555
O13_3 In2_3 1_555 1_555
O14_3 C15_3 1_555 1_555
C15_3 C14_3 1_555 1_555
In4_5 N4_3 1_555 1_555
O15_3 In4_5 1_555 1_555
O16_3 In1_5 1_555 1_555
O18_3 In4_5 1_555 1_555
In7_4 N2_3 1_555 1_555
N7_3 In1_5 1_555 1_555
N9_3 In4_5 1_555 1_555
O19_3 In1_5 1_555 1_555
O21_3 In4_5 1_555 1_555
C2_3 C3_3 1_555 1_555
N2_3 C4_3 1_555 1_555
O4_3 C5_3 1_555 1_555
O5_3 In7_4 1_555 1_555
O7_3 C8_3 1_555 1_555
C7_3 C8_3 1_555 1_555
N4_3 C9_3 1_555 1_555
O9_3 C10_3 1_555 1_555
O10_3 In4_5 1_555 1_555
C12_3 C13_3 1_555 1_555
O13_3 C15_3 1_555 1_555
O14_3 In6_4 1_555 1_555
N5_3 C11_3 1_555 1_555
C11_3 H7_3 1_555 1_555
N6_3 C11_3 1_555 1_555
O17_3 In3_5 1_555 1_555
In5_4 N5_3 1_555 1_555
In6_5 N6_3 1_555 1_555
N8_3 In3_5 1_555 1_555
O20_3 In3_5 1_555 1_555
O1_4 C3_4 1_555 1_555
C3_4 O2_4 1_555 1_555
In2_4 O1_4 1_555 1_555
C4_4 C2_4 1_555 1_555
O4_4 In2_4 1_555 1_555
O5_4 C5_4 1_555 1_555
C5_4 C4_4 1_555 1_555
In3_6 N3_4 1_555 1_555
N3_4 C6_4 1_555 1_555
O6_4 In2_4 1_555 1_555
O7_4 In3_6 1_555 1_555
O8_4 In3_6 1_555 1_555
C6_4 H6_4 1_555 1_555
C7_4 N3_4 1_555 1_555
C8_4 O6_4 1_555 1_555
N4_4 C6_4 1_555 1_555
C9_4 C7_4 1_555 1_555
O9_4 In2_4 1_555 1_555
O10_4 C10_4 1_555 1_555
C10_4 C9_4 1_555 1_555
N5_4 C11_4 1_555 1_555
O11_4 In2_4 1_555 1_555
O12_4 C13_4 1_555 1_555
C11_4 H7_4 1_555 1_555
C12_4 N5_4 1_555 1_555
C13_4 O11_4 1_555 1_555
N6_4 C11_4 1_555 1_555
C14_4 C12_4 1_555 1_555
O13_4 In2_4 1_555 1_555
O14_4 C15_4 1_555 1_555
C15_4 C14_4 1_555 1_555
In4_6 N4_4 1_555 1_555
O15_4 In4_6 1_555 1_555
O17_4 In3_6 1_555 1_555
O18_4 In4_6 1_555 1_555
In5_5 N5_4 1_555 1_555
In6_6 N6_4 1_555 1_555
N8_4 In3_6 1_555 1_555
N9_4 In4_6 1_555 1_555
O20_4 In3_6 1_555 1_555
O21_4 In4_6 1_555 1_555
C2_4 C3_4 1_555 1_555
O4_4 C5_4 1_555 1_555
O5_4 In7_5 1_555 1_555
O7_4 C8_4 1_555 1_555
C7_4 C8_4 1_555 1_555
N4_4 C9_4 1_555 1_555
O9_4 C10_4 1_555 1_555
O10_4 In4_6 1_555 1_555
O12_4 In5_5 1_555 1_555
C12_4 C13_4 1_555 1_555
N6_4 C14_4 1_555 1_555
O13_4 C15_4 1_555 1_555
O14_4 In6_6 1_555 1_555
In1_6 N1_4 1_555 1_555
N1_4 C1_4 1_555 1_555
O3_4 In1_6 1_555 1_555
C1_4 H3_4 1_555 1_555
N2_4 C1_4 1_555 1_555
O16_4 In1_6 1_555 1_555
In7_6 N2_4 1_555 1_555
N7_4 In1_6 1_555 1_555
O15_5 In6_4 1_555 1_555
N9_5 In6_4 1_555 1_555
O8_5 In5_4 1_555 1_555
O17_5 In5_4 1_555 1_555
O18_5 In6_5 1_555 1_555
N8_5 In5_4 1_555 1_555
O21_5 In6_5 1_555 1_555
O17_6 In5_2 1_555 1_555
N8_6 In5_2 1_555 1_555
O8_6 In5_3 1_555 1_555
O18_6 In6_2 1_555 1_555
O21_6 In6_2 1_555 1_555
O15_6 In6_3 1_555 1_555
N9_6 In6_3 1_555 1_555
O8_7 In5_5 1_555 1_555
O15_7 In6_6 1_555 1_555
O18_7 In6_6 1_555 1_555
N9_7 In6_6 1_555 1_555
O21_7 In6_6 1_555 1_555
O17_7 In5_6 1_555 1_555
N8_7 In5_6 1_555 1_555
O20_7 In5_6 1_555 1_555
O8_8 In5 1_555 1_555
O15_8 In6 1_555 1_555
O17_8 In5 1_555 1_555
O18_8 In6 1_555 1_555
N8_8 In5 1_555 1_555
N9_8 In6 1_555 1_555
O20_8 In5 1_555 1_555
O21_8 In6 1_555 1_555
O15_9 In7_5 1_555 1_555
N9_9 In7_5 1_555 1_555
O18_9 In7_6 1_555 1_555
O21_9 In7_6 1_555 1_555
O18_10 In7_2 1_555 1_555
O21_10 In7_2 1_555 1_555
O15_10 In7_3 1_555 1_555
N9_10 In7_3 1_555 1_555
O15_11 In7 1_555 1_555
O18_11 In7 1_555 1_555
N9_11 In7 1_555 1_555
O21_11 In7 1_555 1_555
O15_12 In7_4 1_555 1_555
O18_12 In7_4 1_555 1_555
N9_12 In7_4 1_555 1_555
O21_12 In7_4 1_555 1_555
N8_6 C11_5 1_555 1_555
C11_5 H7_5 1_555 1_555
N9_5 C11_5 1_555 1_555
O1_5 C3_5 1_555 1_555
C3_5 O19_4 1_555 1_555
In2_5 O1_5 1_555 1_555
C4_5 C2_5 1_555 1_555
O4_5 In2_5 1_555 1_555
O21_10 C5_5 1_555 1_555
C5_5 C4_5 1_555 1_555
N8_3 C6_5 1_555 1_555
O6_5 In2_5 1_555 1_555
C6_5 H6_5 1_555 1_555
C7_5 N8_3 1_555 1_555
C8_5 O6_5 1_555 1_555
N9_4 C6_5 1_555 1_555
C9_5 C7_5 1_555 1_555
O9_5 In2_5 1_555 1_555
O21_4 C10_5 1_555 1_555
C10_5 C9_5 1_555 1_555
O11_5 In2_5 1_555 1_555
O20_6 C13_5 1_555 1_555
C13_5 O11_5 1_555 1_555
C14_5 C12_5 1_555 1_555
O13_5 In2_5 1_555 1_555
O21_5 C15_5 1_555 1_555
C15_5 C14_5 1_555 1_555
C2_5 C3_5 1_555 1_555
O4_5 C5_5 1_555 1_555
O20_3 C8_5 1_555 1_555
C7_5 C8_5 1_555 1_555
N9_4 C9_5 1_555 1_555
O9_5 C10_5 1_555 1_555
C12_5 C13_5 1_555 1_555
O13_5 C15_5 1_555 1_555
N7_4 C1_5 1_555 1_555
C1_5 H3_5 1_555 1_555
N9_10 C1_5 1_555 1_555
N7_3 C1_6 1_555 1_555
O1_6 C3_6 1_555 1_555
C1_6 H3_6 1_555 1_555
C2_6 N7_3 1_555 1_555
C3_6 O19_3 1_555 1_555
In2_6 O1_6 1_555 1_555
N9_11 C1_6 1_555 1_555
C4_6 C2_6 1_555 1_555
O4_6 In2_6 1_555 1_555
O21_11 C5_6 1_555 1_555
C5_6 C4_6 1_555 1_555
N8_4 C6_6 1_555 1_555
O6_6 In2_6 1_555 1_555
C6_6 H6_6 1_555 1_555
C7_6 N8_4 1_555 1_555
C8_6 O6_6 1_555 1_555
N9_3 C6_6 1_555 1_555
C9_6 C7_6 1_555 1_555
O9_6 In2_6 1_555 1_555
O21_3 C10_6 1_555 1_555
C10_6 C9_6 1_555 1_555
N8_8 C11_6 1_555 1_555
O11_6 In2_6 1_555 1_555
O20_8 C13_6 1_555 1_555
C11_6 H7_6 1_555 1_555
C12_6 N8_8 1_555 1_555
C13_6 O11_6 1_555 1_555
N9_7 C11_6 1_555 1_555
C14_6 C12_6 1_555 1_555
O13_6 In2_6 1_555 1_555
O21_7 C15_6 1_555 1_555
C15_6 C14_6 1_555 1_555
C2_6 C3_6 1_555 1_555
N9_11 C4_6 1_555 1_555
O4_6 C5_6 1_555 1_555
O20_4 C8_6 1_555 1_555
C7_6 C8_6 1_555 1_555
N9_3 C9_6 1_555 1_555
O9_6 C10_6 1_555 1_555
C12_6 C13_6 1_555 1_555
N9_7 C14_6 1_555 1_555
O13_6 C15_6 1_555 1_555
N7_2 C1_7 1_555 1_555
C1_7 H3_7 1_555 1_555
N9_9 C1_7 1_555 1_555
O1_7 C3_7 1_555 1_555
C3_7 O19_2 1_555 1_555
In2_7 O1_7 1_555 1_555
C4_7 C2_7 1_555 1_555
O4_7 In2_7 1_555 1_555
O21_9 C5_7 1_555 1_555
C5_7 C4_7 1_555 1_555
O6_7 In2_7 1_555 1_555
C8_7 O6_7 1_555 1_555
C9_7 C7_7 1_555 1_555
O9_7 In2_7 1_555 1_555
O21_2 C10_7 1_555 1_555
C10_7 C9_7 1_555 1_555
N8_7 C11_7 1_555 1_555
O11_7 In2_7 1_555 1_555
O20_7 C13_7 1_555 1_555
C11_7 H7_7 1_555 1_555
C12_7 N8_7 1_555 1_555
C13_7 O11_7 1_555 1_555
N9_8 C11_7 1_555 1_555
C14_7 C12_7 1_555 1_555
O13_7 In2_7 1_555 1_555
O21_8 C15_7 1_555 1_555
C15_7 C14_7 1_555 1_555
C2_7 C3_7 1_555 1_555
O4_7 C5_7 1_555 1_555
O20 C8_7 1_555 1_555
C7_7 C8_7 1_555 1_555
O9_7 C10_7 1_555 1_555
C12_7 C13_7 1_555 1_555
N9_8 C14_7 1_555 1_555
O13_7 C15_7 1_555 1_555
N8 C6_7 1_555 1_555
C6_7 H6_7 1_555 1_555
N9_2 C6_7 1_555 1_555
N8_2 C6_8 1_555 1_555
C6_8 H6_8 1_555 1_555
N9 C6_8 1_555 1_555
N7 C1_8 1_555 1_555
O1_8 C3_8 1_555 1_555
C1_8 H3_8 1_555 1_555
C2_8 N7 1_555 1_555
C3_8 O19 1_555 1_555
In2_8 O1_8 1_555 1_555
N9_12 C1_8 1_555 1_555
C4_8 C2_8 1_555 1_555
O4_8 In2_8 1_555 1_555
O21_12 C5_8 1_555 1_555
C5_8 C4_8 1_555 1_555
O6_8 In2_8 1_555 1_555
C8_8 O6_8 1_555 1_555
C9_8 C7_8 1_555 1_555
O9_8 In2_8 1_555 1_555
O21 C10_8 1_555 1_555
C10_8 C9_8 1_555 1_555
O11_8 In2_8 1_555 1_555
O20_5 C13_8 1_555 1_555
C13_8 O11_8 1_555 1_555
C14_8 C12_8 1_555 1_555
O13_8 In2_8 1_555 1_555
O21_6 C15_8 1_555 1_555
C15_8 C14_8 1_555 1_555
C2_8 C3_8 1_555 1_555
N9_12 C4_8 1_555 1_555
O4_8 C5_8 1_555 1_555
O20_2 C8_8 1_555 1_555
C7_8 C8_8 1_555 1_555
O9_8 C10_8 1_555 1_555
C12_8 C13_8 1_555 1_555
O13_8 C15_8 1_555 1_555
N8_5 C11_8 1_555 1_555
C11_8 H7_8 1_555 1_555
N9_6 C11_8 1_555 1_555

#END
