
###############################################################################
#
# This file contains modified crystal structure data generated from the
# MOF subset of the Cambridge Structural Database (CSD) v542 
# hosted by the Cambridge Crystallographic Data Centre (CCDC).
#
# This work is licensed under the Creative Commons
# Attribution-NonCommercial-ShareAlike 4.0 International License.
# To view a copy of this license, visit
# http://creativecommons.org/licenses/by-nc-sa/4.0/
# or send a letter to
# Creative Commons, PO Box 1866, Mountain View, CA 94042, USA.
#
# CIF created using the CSD Python API on 22 February 2021
# The structure has been converted into the P1 space group
# The structure has a 3D framework
# The original CSD entry UHASII is in the tetragonal crystal system
# The original CSD entry UHASII is in a Sohncke space group
# The framework has been calculated to contain at least 10.0% void space
# The void calculation uses a probe of radius 1.32A, grid spacing 0.4
#
###############################################################################

data_UHASII
_chemical_formula_moiety         '(C200 H216 N40 O88 Zn10)n'
_symmetry_cell_setting           triclinic
_symmetry_space_group_name_H-M   'P 1'
_symmetry_Int_Tables_number      1
_space_group_name_Hall           'P 1'
loop_
_symmetry_equiv_pos_site_id
_symmetry_equiv_pos_as_xyz
1 x,y,z
_cell_length_a                   13.6320(2)
_cell_length_b                   13.6320(5)
_cell_length_c                   45.3690(3)
_cell_angle_alpha                90
_cell_angle_beta                 90
_cell_angle_gamma                90
_cell_volume                     8430.99
loop_
_atom_site_label
_atom_site_type_symbol
_atom_site_fract_x
_atom_site_fract_y
_atom_site_fract_z
Zn2 Zn 0.51201(7) 0.01059(7) 0.63094(2)
O1 O 0.4337(5) 0.0497(5) 0.59256(14)
O6 O 0.4028(6) 0.1382(6) 0.63115(15)
O7 O 0.0874(5) 0.4346(5) 0.58387(15)
O8 O 0.1298(6) 0.3715(6) 0.62677(15)
C9 C 0.3904(7) 0.1219(8) 0.6050(2)
C10 C 0.3285(8) 0.1849(8) 0.5861(2)
C11 C 0.3336(8) 0.1832(8) 0.5558(2)
H4 H 0.3768 0.1409 0.5463
C12 C 0.2735(10) 0.2453(9) 0.5394(2)
C13 C 0.2124(8) 0.3097(8) 0.5534(2)
H5 H 0.1750 0.3538 0.5425
C14 C 0.2065(7) 0.3088(7) 0.5837(2)
C15 C 0.1361(8) 0.3758(8) 0.5999(2)
C16 C 0.2650(8) 0.2505(8) 0.6011(2)
H6 H 0.2631 0.2540 0.6215
C18 C 0.060(2) 0.031(2) 0.5431(7)
H8 H 0.0955 0.0850 0.5516
H10 H 0.0801 0.0222 0.5230
H15 H 0.4784 0.0496 0.4691
N4 N 0.2809(10) 0.2335(10) 0.5079(2)
O12 O 0.0497(5) 0.4337(5) 0.40744(14)
O13 O 0.1382(6) 0.4028(6) 0.36885(15)
O14 O 0.4346(5) 0.0874(5) 0.41613(15)
O15 O 0.3715(6) 0.1298(6) 0.37323(15)
C26 C 0.1219(8) 0.3904(7) 0.3950(2)
C27 C 0.1849(8) 0.3285(8) 0.4139(2)
C28 C 0.1832(8) 0.3336(8) 0.4442(2)
H28 H 0.1409 0.3768 0.4537
C29 C 0.2453(9) 0.2735(10) 0.4606(2)
C30 C 0.3097(8) 0.2124(8) 0.4466(2)
H29 H 0.3538 0.1750 0.4575
C31 C 0.3088(7) 0.2065(7) 0.4163(2)
C32 C 0.3758(8) 0.1361(8) 0.4001(2)
C33 C 0.2505(8) 0.2650(8) 0.3989(2)
H30 H 0.2540 0.2631 0.3785
N6 N 0.2335(10) 0.2809(10) 0.4921(2)
H38 H 0.1284 0.0477 0.9443
H39 H 0.1169 0.0155 0.9113
Zn7 Zn 0.42110(10) 0.12141(10) 0.82418(3)
Zn9 Zn 0.01201(7) 0.48941(7) 0.61906(2)
Zn10 Zn 0.01059(7) 0.51201(7) 0.36906(2)
Zn11 Zn 0.48941(7) 0.01201(7) 0.38094(2)
O29 O 0.5874(5) 0.0654(5) 0.66613(15)
O31 O 0.6298(6) 0.1285(6) 0.62323(15)
Zn1 Zn 0.37859(10) 0.92110(10) 0.57418(3)
O2 O 0.4228(5) 0.9250(5) 0.65320(13)
O3 O 0.3380(6) 0.8692(7) 0.61474(15)
O4 O 0.0143(6) 0.6362(5) 0.67488(19)
O5 O 0.0996(5) 0.5927(5) 0.63462(14)
O9 O 0.2389(6) 0.9783(7) 0.5690(2)
O10 O 0.4098(6) 0.9616(6) 0.53119(15)
O11 O 0.3211(8) 0.7898(7) 0.55861(18)
N1 N 0.0805(13) 0.9392(15) 0.5603(4)
N2 N 0.3972(13) 0.9373(11) 0.4825(2)
N3 N 0.2930(12) 0.6334(11) 0.5736(4)
C1 C 0.3582(8) 0.8734(8) 0.6411(2)
C2 C 0.2977(8) 0.8096(7) 0.66133(19)
C3 C 0.3124(9) 0.8143(9) 0.6915(2)
H1 H 0.3625 0.8532 0.6990
C4 C 0.2534(10) 0.7617(9) 0.7104(2)
C5 C 0.1772(9) 0.7086(9) 0.6995(2)
H2 H 0.1320 0.6796 0.7121
C6 C 0.1683(8) 0.6987(7) 0.6691(2)
C7 C 0.0869(8) 0.6364(7) 0.6588(2)
C8 C 0.2286(8) 0.7485(8) 0.6503(2)
H3 H 0.2223 0.7405 0.6300
C17 C 0.1672(14) 0.9200(15) 0.5705(4)
H7 H 0.1772 0.8595 0.5795
C19 C 0.0068(18) 0.868(2) 0.5691(7)
H13 H 0.0345 0.8037 0.5687
C20 C 0.3631(13) 0.9367(12) 0.5106(3)
H14 H 0.2991 0.9155 0.5139
C21 C 0.4900(15) 0.9852(17) 0.4770(5)
H16 H 0.5271 0.9475 0.4630
H17 H 0.5262 0.9904 0.4951
C22 C 0.317(2) 0.922(2) 0.4584(5)
H18 H 0.3378 0.8637 0.4490
H19 H 0.3185 0.9739 0.4444
H20 H 0.2531 0.9143 0.4658
C23 C 0.3434(13) 0.7127(13) 0.5717(4)
H21 H 0.4037 0.7126 0.5813
C24 C 0.3156(18) 0.5559(18) 0.5943(5)
H22 H 0.3154 0.4939 0.5843
H23 H 0.2673 0.5552 0.6097
H24 H 0.3793 0.5672 0.6027
C25 C 0.201(2) 0.6360(19) 0.5573(7)
H25 H 0.2115 0.6650 0.5383
H26 H 0.1536 0.6742 0.5680
H27 H 0.1765 0.5704 0.5548
N5 N 0.2737(11) 0.7759(11) 0.7417(2)
O16 O 0.0750(5) 0.5772(5) 0.84680(13)
O17 O 0.1308(7) 0.6620(6) 0.88526(15)
O18 O 0.3638(5) 0.9857(6) 0.82512(19)
O19 O 0.4073(5) 0.9004(5) 0.86538(14)
C34 C 0.1266(8) 0.6418(8) 0.8589(2)
C35 C 0.1904(7) 0.7023(8) 0.83867(19)
C36 C 0.1857(9) 0.6876(9) 0.8085(2)
H31 H 0.1468 0.6375 0.8010
C37 C 0.2383(9) 0.7466(10) 0.7896(2)
C38 C 0.2914(9) 0.8228(9) 0.8005(2)
H32 H 0.3204 0.8680 0.7879
C39 C 0.3013(7) 0.8317(8) 0.8309(2)
C40 C 0.3636(7) 0.9131(8) 0.8412(2)
C41 C 0.2515(8) 0.7714(8) 0.8497(2)
H33 H 0.2595 0.7777 0.8700
N7 N 0.2241(11) 0.7263(11) 0.7583(2)
Zn3 Zn 0.07890(10) 0.62141(10) 0.92582(3)
O20 O 0.0217(7) 0.7611(6) 0.9310(2)
O21 O 0.0384(6) 0.5902(6) 0.96881(15)
O22 O 0.2102(7) 0.6789(8) 0.94139(18)
N8 N 0.0608(15) 0.9195(13) 0.9397(4)
N10 N 0.3666(11) 0.7070(12) 0.9264(4)
C42 C 0.0800(15) 0.8328(14) 0.9295(4)
H34 H 0.1405 0.8228 0.9205
C44 C 0.132(2) 0.9932(18) 0.9309(7)
H40 H 0.1963 0.9655 0.9313
C45 C 0.0633(12) 0.6369(13) 0.9894(3)
H41 H 0.0845 0.7009 0.9861
C48 C 0.2873(13) 0.6566(13) 0.9283(4)
H48 H 0.2874 0.5963 0.9187
C49 C 0.4441(18) 0.6844(18) 0.9057(5)
H49 H 0.5061 0.6846 0.9157
H50 H 0.4448 0.7327 0.8903
H51 H 0.4328 0.6207 0.8973
C50 C 0.3640(19) 0.799(2) 0.9427(7)
H52 H 0.3350 0.7885 0.9617
H53 H 0.3258 0.8464 0.9320
H54 H 0.4296 0.8235 0.9452
Zn12 Zn 0.51059(7) 0.98799(7) 0.88094(2)
O24 O 0.5143(6) 0.8638(5) 0.57512(19)
O25 O 0.1362(5) 0.4857(6) 0.92488(19)
O26 O 0.5996(5) 0.9073(5) 0.61538(14)
O27 O 0.0927(5) 0.4004(5) 0.88462(14)
H9 H 0.9909 0.0452 0.5437
H36 H 0.9548 0.0091 0.9563
Zn6 Zn 0.92110(10) 0.37859(10) 0.42582(3)
H42 H 0.9504 0.5216 0.0309
H11 H 0.9523 0.8716 0.5557
H12 H 0.9845 0.8831 0.5887
Zn4 Zn 0.98941(7) 0.48799(7) 0.86906(2)
C43 C 0.969(2) 0.940(2) 0.9569(7)
H35 H 0.9150 0.9045 0.9484
H37 H 0.9778 0.9199 0.9770
Zn5 Zn 0.87859(10) 0.57890(10) 0.67582(3)
O23 O 0.9503(5) 0.5663(5) 0.90744(14)
O28 O 0.8618(6) 0.5972(6) 0.86885(15)
O30 O 0.9346(5) 0.4126(5) 0.83387(15)
O32 O 0.8715(6) 0.3702(6) 0.87677(15)
H11_2 H 0.0477 0.1284 0.0557
H12_2 H 0.0155 0.1169 0.0887
C43_2 C 0.031(2) 0.060(2) 0.4569(7)
H35_2 H 0.0850 0.0955 0.4484
H37_2 H 0.0222 0.0801 0.4770
H42_2 H 0.0496 0.4784 0.5309
Zn5_2 Zn 0.12141(10) 0.42110(10) 0.17582(3)
O30_2 O 0.0654(5) 0.5874(5) 0.33387(15)
O32_2 O 0.1285(6) 0.6298(6) 0.37677(15)
H9_2 H 0.0091 0.9548 0.0437
H36_2 H 0.0452 0.9909 0.4563
Zn1_2 Zn 0.62141(10) 0.07890(10) 0.07418(3)
O2_2 O 0.5772(5) 0.0750(5) 0.15320(13)
O3_2 O 0.6620(6) 0.1308(7) 0.11474(15)
O4_2 O 0.9857(6) 0.3638(5) 0.17488(19)
O5_2 O 0.9004(5) 0.4073(5) 0.13462(14)
O9_2 O 0.7611(6) 0.0217(7) 0.0690(2)
O10_2 O 0.5902(6) 0.0384(6) 0.03119(15)
O11_2 O 0.6789(8) 0.2102(7) 0.05861(18)
N1_2 N 0.9195(13) 0.0608(15) 0.0603(4)
N3_2 N 0.7070(12) 0.3666(11) 0.0736(4)
C1_2 C 0.6418(8) 0.1266(8) 0.1411(2)
C2_2 C 0.7023(8) 0.1904(7) 0.16133(19)
C3_2 C 0.6876(9) 0.1857(9) 0.1915(2)
H1_2 H 0.6375 0.1468 0.1990
C4_2 C 0.7466(10) 0.2383(9) 0.2104(2)
C5_2 C 0.8228(9) 0.2914(9) 0.1995(2)
H2_2 H 0.8680 0.3204 0.2121
C6_2 C 0.8317(8) 0.3013(7) 0.1691(2)
C7_2 C 0.9131(8) 0.3636(7) 0.1588(2)
C8_2 C 0.7714(8) 0.2515(8) 0.1503(2)
H3_2 H 0.7777 0.2595 0.1300
C17_2 C 0.8328(14) 0.0800(15) 0.0705(4)
H7_2 H 0.8228 0.1405 0.0795
C19_2 C 0.9932(18) 0.132(2) 0.0691(7)
H13_2 H 0.9655 0.1963 0.0687
C20_2 C 0.6369(13) 0.0633(12) 0.0106(3)
H14_2 H 0.7009 0.0845 0.0139
C23_2 C 0.6566(13) 0.2873(13) 0.0717(4)
H21_2 H 0.5963 0.2874 0.0813
C24_2 C 0.6844(18) 0.4441(18) 0.0943(5)
H22_2 H 0.6846 0.5061 0.0843
H23_2 H 0.7327 0.4448 0.1097
H24_2 H 0.6207 0.4328 0.1027
C25_2 C 0.799(2) 0.3640(19) 0.0573(7)
H25_2 H 0.7885 0.3350 0.0383
H26_2 H 0.8464 0.3258 0.0680
H27_2 H 0.8235 0.4296 0.0548
N5_2 N 0.7263(11) 0.2241(11) 0.2417(2)
O16_2 O 0.9250(5) 0.4228(5) 0.34680(13)
O17_2 O 0.8692(7) 0.3380(6) 0.38526(15)
O18_2 O 0.6362(5) 0.0143(6) 0.32512(19)
O19_2 O 0.5927(5) 0.0996(5) 0.36538(14)
C34_2 C 0.8734(8) 0.3582(8) 0.3589(2)
C35_2 C 0.8096(7) 0.2977(8) 0.33867(19)
C36_2 C 0.8143(9) 0.3124(9) 0.3085(2)
H31_2 H 0.8532 0.3625 0.3010
C37_2 C 0.7617(9) 0.2534(10) 0.2896(2)
C38_2 C 0.7086(9) 0.1772(9) 0.3005(2)
H32_2 H 0.6796 0.1320 0.2879
C39_2 C 0.6987(7) 0.1683(8) 0.3309(2)
C40_2 C 0.6364(7) 0.0869(8) 0.3412(2)
C41_2 C 0.7485(8) 0.2286(8) 0.3497(2)
H33_2 H 0.7405 0.2223 0.3700
N7_2 N 0.7759(11) 0.2737(11) 0.2583(2)
O20_2 O 0.9783(7) 0.2389(6) 0.4310(2)
O21_2 O 0.9616(6) 0.4098(6) 0.46881(15)
O22_2 O 0.7898(7) 0.3211(8) 0.44139(18)
N8_2 N 0.9392(15) 0.0805(13) 0.4397(4)
N9 N 0.9373(11) 0.3972(13) 0.5175(2)
N10_2 N 0.6334(11) 0.2930(12) 0.4264(4)
C42_2 C 0.9200(15) 0.1672(14) 0.4295(4)
H34_2 H 0.8595 0.1772 0.4205
C44_2 C 0.868(2) 0.0068(18) 0.4309(7)
H40_2 H 0.8037 0.0345 0.4313
C45_2 C 0.9367(12) 0.3631(13) 0.4894(3)
H41_2 H 0.9155 0.2991 0.4861
C46 C 0.9852(17) 0.4900(15) 0.5230(5)
H43 H 0.9475 0.5271 0.5370
H44 H 0.9904 0.5262 0.5049
C47 C 0.922(2) 0.317(2) 0.5416(5)
H45 H 0.8637 0.3378 0.5510
H46 H 0.9739 0.3185 0.5556
H47 H 0.9143 0.2531 0.5342
C48_2 C 0.7127(13) 0.3434(13) 0.4283(4)
H48_2 H 0.7126 0.4037 0.4187
C49_2 C 0.5559(18) 0.3156(18) 0.4057(5)
H49_2 H 0.4939 0.3154 0.4157
H50_2 H 0.5552 0.2673 0.3903
H51_2 H 0.5672 0.3793 0.3973
C50_2 C 0.6360(19) 0.201(2) 0.4427(7)
H52_2 H 0.6650 0.2115 0.4617
H53_2 H 0.6742 0.1536 0.4320
H54_2 H 0.5704 0.1765 0.4452
Zn8 Zn 0.98799(7) 0.51059(7) 0.11906(2)
O24_2 O 0.4857(6) 0.1362(5) 0.07512(19)
O25_2 O 0.8638(5) 0.5143(6) 0.42488(19)
O26_2 O 0.4004(5) 0.0927(5) 0.11538(14)
O27_2 O 0.9073(5) 0.5996(5) 0.38462(14)
Zn2_2 Zn 0.48799(7) 0.98941(7) 0.13094(2)
O1_2 O 0.5663(5) 0.9503(5) 0.09256(14)
O6_2 O 0.5972(6) 0.8618(6) 0.13115(15)
O7_2 O 0.9126(5) 0.5654(5) 0.08387(15)
O8_2 O 0.8702(6) 0.6285(6) 0.12677(15)
C9_2 C 0.6096(7) 0.8781(8) 0.1050(2)
C10_2 C 0.6715(8) 0.8151(8) 0.0861(2)
C11_2 C 0.6664(8) 0.8168(8) 0.0558(2)
H4_2 H 0.6232 0.8591 0.0463
C12_2 C 0.7265(10) 0.7547(9) 0.0394(2)
C13_2 C 0.7876(8) 0.6903(8) 0.0534(2)
H5_2 H 0.8250 0.6462 0.0425
C14_2 C 0.7935(7) 0.6912(7) 0.0837(2)
C15_2 C 0.8639(8) 0.6242(8) 0.0999(2)
C16_2 C 0.7350(8) 0.7495(8) 0.1011(2)
H6_2 H 0.7369 0.7460 0.1215
C18_2 C 0.940(2) 0.969(2) 0.0431(7)
H8_2 H 0.9045 0.9150 0.0516
H10_2 H 0.9199 0.9778 0.0230
N4_2 N 0.7191(10) 0.7665(10) 0.0079(2)
H38_2 H 0.8716 0.9523 0.4443
H39_2 H 0.8831 0.9845 0.4113
Zn7_2 Zn 0.57890(10) 0.87859(10) 0.32418(3)
O29_2 O 0.4126(5) 0.9346(5) 0.16613(15)
O31_2 O 0.3702(6) 0.8715(6) 0.12323(15)
H15_2 H 0.5216 0.9504 0.9691
O14_2 O 0.5654(5) 0.9126(5) 0.91613(15)
O15_2 O 0.6285(6) 0.8702(6) 0.87323(15)
C26_2 C 0.8781(8) 0.6096(7) 0.8950(2)
C27_2 C 0.8151(8) 0.6715(8) 0.9139(2)
C28_2 C 0.8168(8) 0.6664(8) 0.9442(2)
H28_2 H 0.8591 0.6232 0.9537
C29_2 C 0.7547(9) 0.7265(10) 0.9606(2)
C30_2 C 0.6903(8) 0.7876(8) 0.9466(2)
H29_2 H 0.6462 0.8250 0.9575
C31_2 C 0.6912(7) 0.7935(7) 0.9163(2)
C32_2 C 0.6242(8) 0.8639(8) 0.9001(2)
C33_2 C 0.7495(8) 0.7350(8) 0.8989(2)
H30_2 H 0.7460 0.7369 0.8785
N6_2 N 0.7665(10) 0.7191(10) 0.9921(2)
H16_2 H 0.0271 0.5525 0.7870
H17_2 H 0.0262 0.5096 0.7549
H49_3 H 0.0061 0.8154 0.3343
H22_3 H 0.8154 0.0061 0.6657
H43_2 H 0.5525 0.0271 0.2130
H44_2 H 0.5096 0.0262 0.2451
O1_3 O 0.9337(5) 0.4503(5) 0.65744(14)
O2_3 O 0.9228(5) 0.5750(5) 0.59680(13)
O3_3 O 0.8380(6) 0.6308(7) 0.63526(15)
O6_3 O 0.9028(6) 0.3618(6) 0.61885(15)
O9_3 O 0.7389(6) 0.5217(7) 0.6810(2)
O10_3 O 0.9098(6) 0.5384(6) 0.71881(15)
O11_3 O 0.8211(8) 0.7102(7) 0.69139(18)
N1_3 N 0.5805(13) 0.5608(15) 0.6897(4)
N2_2 N 0.8972(13) 0.5627(11) 0.7675(2)
N3_3 N 0.7930(12) 0.8666(11) 0.6764(4)
C1_3 C 0.8582(8) 0.6266(8) 0.6089(2)
C2_3 C 0.7977(8) 0.6904(7) 0.58867(19)
C3_3 C 0.8124(9) 0.6857(9) 0.5585(2)
H1_3 H 0.8625 0.6468 0.5510
C4_3 C 0.7534(10) 0.7383(9) 0.5396(2)
C5_3 C 0.6772(9) 0.7914(9) 0.5505(2)
H2_3 H 0.6320 0.8204 0.5379
C6_3 C 0.6683(8) 0.8013(7) 0.5809(2)
C7_3 C 0.5869(8) 0.8636(7) 0.5912(2)
C8_3 C 0.7286(8) 0.7515(8) 0.5997(2)
H3_3 H 0.7223 0.7595 0.6200
C9_3 C 0.8904(7) 0.3781(8) 0.6450(2)
C10_3 C 0.8285(8) 0.3151(8) 0.6639(2)
C11_3 C 0.8336(8) 0.3168(8) 0.6942(2)
H4_3 H 0.8768 0.3591 0.7037
C12_3 C 0.7735(10) 0.2547(9) 0.7106(2)
C13_3 C 0.7124(8) 0.1903(8) 0.6966(2)
H5_3 H 0.6750 0.1462 0.7075
C14_3 C 0.7065(7) 0.1912(7) 0.6663(2)
C15_3 C 0.6361(8) 0.1242(8) 0.6501(2)
C16_3 C 0.7650(8) 0.2495(8) 0.6489(2)
H6_3 H 0.7631 0.2460 0.6285
C17_3 C 0.6672(14) 0.5800(15) 0.6795(4)
H7_3 H 0.6772 0.6405 0.6705
C18_3 C 0.560(2) 0.469(2) 0.7069(7)
H8_3 H 0.5955 0.4150 0.6984
H9_3 H 0.4909 0.4548 0.7063
H10_3 H 0.5801 0.4778 0.7270
C19_3 C 0.5068(18) 0.632(2) 0.6809(7)
H11_3 H 0.4523 0.6284 0.6943
H12_3 H 0.4845 0.6169 0.6613
H13_3 H 0.5345 0.6963 0.6813
C20_3 C 0.8631(13) 0.5633(12) 0.7394(3)
H14_3 H 0.7991 0.5845 0.7361
C21_2 C 0.9900(15) 0.5148(17) 0.7730(5)
H15_3 H 0.9784 0.4504 0.7809
C22_2 C 0.817(2) 0.578(2) 0.7916(5)
H18_2 H 0.8378 0.6363 0.8010
H19_2 H 0.8185 0.5261 0.8056
H20_2 H 0.7531 0.5857 0.7842
C23_3 C 0.8434(13) 0.7873(13) 0.6783(4)
H21_3 H 0.9037 0.7874 0.6687
C24_3 C 0.8156(18) 0.9441(18) 0.6557(5)
H23_3 H 0.7673 0.9448 0.6403
H24_3 H 0.8793 0.9328 0.6473
C25_3 C 0.701(2) 0.8640(19) 0.6927(7)
H25_3 H 0.7115 0.8350 0.7117
H26_3 H 0.6536 0.8258 0.6820
H27_3 H 0.6765 0.9296 0.6952
N4_3 N 0.7809(10) 0.2665(10) 0.7421(2)
N5_3 N 0.7737(11) 0.7241(11) 0.5083(2)
O12_2 O 0.5497(5) 0.0663(5) 0.84256(14)
O13_2 O 0.6382(6) 0.0972(6) 0.88115(15)
C26_3 C 0.6219(8) 0.1096(7) 0.8550(2)
C27_3 C 0.6849(8) 0.1715(8) 0.8361(2)
C28_3 C 0.6832(8) 0.1664(8) 0.8058(2)
H28_3 H 0.6409 0.1232 0.7963
C29_3 C 0.7453(9) 0.2265(10) 0.7894(2)
C30_3 C 0.8097(8) 0.2876(8) 0.8034(2)
H29_3 H 0.8538 0.3250 0.7925
C31_3 C 0.8088(7) 0.2935(7) 0.8337(2)
C32_3 C 0.8758(8) 0.3639(8) 0.8499(2)
C33_3 C 0.7505(8) 0.2350(8) 0.8511(2)
H30_3 H 0.7540 0.2369 0.8715
N6_3 N 0.7335(10) 0.2191(10) 0.7579(2)
O16_3 O 0.5750(5) 0.9228(5) 0.40320(13)
O17_3 O 0.6308(7) 0.8380(6) 0.36474(15)
C34_3 C 0.6266(8) 0.8582(8) 0.3911(2)
C35_3 C 0.6904(7) 0.7977(8) 0.41133(19)
C36_3 C 0.6857(9) 0.8124(9) 0.4415(2)
H31_3 H 0.6468 0.8625 0.4490
C37_3 C 0.7383(9) 0.7534(10) 0.4604(2)
C38_3 C 0.7914(9) 0.6772(9) 0.4495(2)
H32_3 H 0.8204 0.6320 0.4621
C39_3 C 0.8013(7) 0.6683(8) 0.4191(2)
C40_3 C 0.8636(7) 0.5869(8) 0.4088(2)
C41_3 C 0.7515(8) 0.7286(8) 0.4003(2)
H33_3 H 0.7595 0.7223 0.3800
N7_3 N 0.7241(11) 0.7737(11) 0.4917(2)
O20_3 O 0.5217(7) 0.7389(6) 0.3190(2)
O21_3 O 0.5384(6) 0.9098(6) 0.28119(15)
O22_3 O 0.7102(7) 0.8211(8) 0.30861(18)
N8_3 N 0.5608(15) 0.5805(13) 0.3103(4)
N9_2 N 0.5627(11) 0.8972(13) 0.2325(2)
N10_3 N 0.8666(11) 0.7930(12) 0.3236(4)
C42_3 C 0.5800(15) 0.6672(14) 0.3205(4)
H34_3 H 0.6405 0.6772 0.3295
C43_3 C 0.469(2) 0.560(2) 0.2931(7)
H35_3 H 0.4150 0.5955 0.3016
H36_3 H 0.4548 0.4909 0.2937
H37_3 H 0.4778 0.5801 0.2730
C44_3 C 0.632(2) 0.5068(18) 0.3191(7)
H38_3 H 0.6284 0.4523 0.3057
H39_3 H 0.6169 0.4845 0.3387
H40_3 H 0.6963 0.5345 0.3187
C45_3 C 0.5633(12) 0.8631(13) 0.2606(3)
H41_3 H 0.5845 0.7991 0.2639
C46_2 C 0.5148(17) 0.9900(15) 0.2270(5)
H42_3 H 0.4504 0.9784 0.2191
C47_2 C 0.578(2) 0.817(2) 0.2084(5)
H45_2 H 0.6363 0.8378 0.1990
H46_2 H 0.5261 0.8185 0.1944
H47_2 H 0.5857 0.7531 0.2158
C48_3 C 0.7873(13) 0.8434(13) 0.3217(4)
H48_3 H 0.7874 0.9037 0.3313
C49_3 C 0.9441(18) 0.8156(18) 0.3443(5)
H50_3 H 0.9448 0.7673 0.3597
H51_3 H 0.9328 0.8793 0.3527
C50_3 C 0.8640(19) 0.701(2) 0.3073(7)
H52_3 H 0.8350 0.7115 0.2883
H53_3 H 0.8258 0.6536 0.3180
H54_3 H 0.9296 0.6765 0.3048
O23_2 O 0.4503(5) 0.9337(5) 0.34256(14)
O28_2 O 0.3618(6) 0.9028(6) 0.38115(15)
O1_4 O 0.0663(5) 0.5497(5) 0.15744(14)
O2_4 O 0.0772(5) 0.4250(5) 0.09680(13)
O3_4 O 0.1620(6) 0.3692(7) 0.13526(15)
O6_4 O 0.0972(6) 0.6382(6) 0.11885(15)
O9_4 O 0.2611(6) 0.4783(7) 0.1810(2)
O10_4 O 0.0902(6) 0.4616(6) 0.21881(15)
O11_4 O 0.1789(8) 0.2898(7) 0.19139(18)
N1_4 N 0.4195(13) 0.4392(15) 0.1897(4)
N2_3 N 0.1028(13) 0.4373(11) 0.2675(2)
N3_4 N 0.2070(12) 0.1334(11) 0.1764(4)
C1_4 C 0.1418(8) 0.3734(8) 0.1089(2)
C2_4 C 0.2023(8) 0.3096(7) 0.08867(19)
C3_4 C 0.1876(9) 0.3143(9) 0.0585(2)
H1_4 H 0.1375 0.3532 0.0510
C4_4 C 0.2466(10) 0.2617(9) 0.0396(2)
C5_4 C 0.3228(9) 0.2086(9) 0.0505(2)
H2_4 H 0.3680 0.1796 0.0379
C6_4 C 0.3317(8) 0.1987(7) 0.0809(2)
C7_4 C 0.4131(8) 0.1364(7) 0.0912(2)
C8_4 C 0.2714(8) 0.2485(8) 0.0997(2)
H3_4 H 0.2777 0.2405 0.1200
C9_4 C 0.1096(7) 0.6219(8) 0.1450(2)
C10_4 C 0.1715(8) 0.6849(8) 0.1639(2)
C11_4 C 0.1664(8) 0.6832(8) 0.1942(2)
H4_4 H 0.1232 0.6409 0.2037
C12_4 C 0.2265(10) 0.7453(9) 0.2106(2)
C13_4 C 0.2876(8) 0.8097(8) 0.1966(2)
H5_4 H 0.3250 0.8538 0.2075
C14_4 C 0.2935(7) 0.8088(7) 0.1663(2)
C15_4 C 0.3639(8) 0.8758(8) 0.1501(2)
C16_4 C 0.2350(8) 0.7505(8) 0.1489(2)
H6_4 H 0.2369 0.7540 0.1285
C17_4 C 0.3328(14) 0.4200(15) 0.1795(4)
H7_4 H 0.3228 0.3595 0.1705
C18_4 C 0.440(2) 0.531(2) 0.2069(7)
H8_4 H 0.4045 0.5850 0.1984
H9_4 H 0.5091 0.5452 0.2063
H10_4 H 0.4199 0.5222 0.2270
C19_4 C 0.4932(18) 0.368(2) 0.1809(7)
H11_4 H 0.5477 0.3716 0.1943
H12_4 H 0.5155 0.3831 0.1613
H13_4 H 0.4655 0.3037 0.1813
C20_4 C 0.1369(13) 0.4367(12) 0.2394(3)
H14_4 H 0.2009 0.4155 0.2361
C21_3 C 0.0100(15) 0.4852(17) 0.2730(5)
H15_4 H 0.0216 0.5496 0.2809
C22_3 C 0.183(2) 0.422(2) 0.2916(5)
H18_3 H 0.1622 0.3637 0.3010
H19_3 H 0.1815 0.4739 0.3056
H20_3 H 0.2469 0.4143 0.2842
C23_4 C 0.1566(13) 0.2127(13) 0.1783(4)
H21_4 H 0.0963 0.2126 0.1687
C24_4 C 0.1844(18) 0.0559(18) 0.1557(5)
H23_4 H 0.2327 0.0552 0.1403
H24_4 H 0.1207 0.0672 0.1473
C25_4 C 0.299(2) 0.1360(19) 0.1927(7)
H25_4 H 0.2885 0.1650 0.2117
H26_4 H 0.3464 0.1742 0.1820
H27_4 H 0.3235 0.0704 0.1952
N4_4 N 0.2191(10) 0.7335(10) 0.2421(2)
N5_4 N 0.2263(11) 0.2759(11) 0.0083(2)
C26_4 C 0.3781(8) 0.8904(7) 0.3550(2)
C27_4 C 0.3151(8) 0.8285(8) 0.3361(2)
C28_4 C 0.3168(8) 0.8336(8) 0.3058(2)
H28_4 H 0.3591 0.8768 0.2963
C29_4 C 0.2547(9) 0.7735(10) 0.2894(2)
C30_4 C 0.1903(8) 0.7124(8) 0.3034(2)
H29_4 H 0.1462 0.6750 0.2925
C31_4 C 0.1912(7) 0.7065(7) 0.3337(2)
C32_4 C 0.1242(8) 0.6361(8) 0.3499(2)
C33_4 C 0.2495(8) 0.7650(8) 0.3511(2)
H30_4 H 0.2460 0.7631 0.3715
N6_4 N 0.2665(10) 0.7809(10) 0.2579(2)
O16_4 O 0.4250(5) 0.0772(5) 0.90320(13)
O17_4 O 0.3692(7) 0.1620(6) 0.86474(15)
C34_4 C 0.3734(8) 0.1418(8) 0.8911(2)
C35_4 C 0.3096(7) 0.2023(8) 0.91133(19)
C36_4 C 0.3143(9) 0.1876(9) 0.9415(2)
H31_4 H 0.3532 0.1375 0.9490
C37_4 C 0.2617(9) 0.2466(10) 0.9604(2)
C38_4 C 0.2086(9) 0.3228(9) 0.9495(2)
H32_4 H 0.1796 0.3680 0.9621
C39_4 C 0.1987(7) 0.3317(8) 0.9191(2)
C40_4 C 0.1364(7) 0.4131(8) 0.9088(2)
C41_4 C 0.2485(8) 0.2714(8) 0.9003(2)
H33_4 H 0.2405 0.2777 0.8800
N7_4 N 0.2759(11) 0.2263(11) 0.9917(2)
O20_4 O 0.4783(7) 0.2611(6) 0.8190(2)
O21_4 O 0.4616(6) 0.0902(6) 0.78119(15)
O22_4 O 0.2898(7) 0.1789(8) 0.80861(18)
N8_4 N 0.4392(15) 0.4195(13) 0.8103(4)
N9_3 N 0.4373(11) 0.1028(13) 0.7325(2)
N10_4 N 0.1334(11) 0.2070(12) 0.8236(4)
C42_4 C 0.4200(15) 0.3328(14) 0.8205(4)
H34_4 H 0.3595 0.3228 0.8295
C43_4 C 0.531(2) 0.440(2) 0.7931(7)
H35_4 H 0.5850 0.4045 0.8016
H36_4 H 0.5452 0.5091 0.7937
H37_4 H 0.5222 0.4199 0.7730
C44_4 C 0.368(2) 0.4932(18) 0.8191(7)
H38_4 H 0.3716 0.5477 0.8057
H39_4 H 0.3831 0.5155 0.8387
H40_4 H 0.3037 0.4655 0.8187
C45_4 C 0.4367(12) 0.1369(13) 0.7606(3)
H41_4 H 0.4155 0.2009 0.7639
C46_3 C 0.4852(17) 0.0100(15) 0.7270(5)
H42_4 H 0.5496 0.0216 0.7191
C47_3 C 0.422(2) 0.183(2) 0.7084(5)
H45_3 H 0.3637 0.1622 0.6990
H46_3 H 0.4739 0.1815 0.6944
H47_3 H 0.4143 0.2469 0.7158
C48_4 C 0.2127(13) 0.1566(13) 0.8217(4)
H48_4 H 0.2126 0.0963 0.8313
C49_4 C 0.0559(18) 0.1844(18) 0.8443(5)
H50_4 H 0.0552 0.2327 0.8597
H51_4 H 0.0672 0.1207 0.8527
C50_4 C 0.1360(19) 0.299(2) 0.8073(7)
H52_4 H 0.1650 0.2885 0.7883
H53_4 H 0.1742 0.3464 0.8180
H54_4 H 0.0704 0.3235 0.8048
H22_4 H 0.1846 0.9939 0.1657
H43_3 H 0.4475 0.9729 0.7130
H44_3 H 0.4904 0.9738 0.7451
H16_3 H 0.9729 0.4475 0.2870
H17_3 H 0.9738 0.4904 0.2549
H49_4 H 0.9939 0.1846 0.8343
N9_4 N 0.0627(11) 0.6028(13) 0.0175(2)
C46_4 C 0.0148(17) 0.5100(15) 0.0230(5)
H43_4 H 0.0525 0.4729 0.0370
H44_4 H 0.0096 0.4738 0.0049
C47_4 C 0.078(2) 0.683(2) 0.0416(5)
H45_4 H 0.1363 0.6622 0.0510
H46_4 H 0.0261 0.6815 0.0556
H47_4 H 0.0857 0.7469 0.0342
N2_4 N 0.6028(13) 0.0627(11) 0.9825(2)
C21_4 C 0.5100(15) 0.0148(17) 0.9770(5)
H16_4 H 0.4729 0.0525 0.9630
H17_4 H 0.4738 0.0096 0.9951
C22_4 C 0.683(2) 0.078(2) 0.9584(5)
H18_4 H 0.6622 0.1363 0.9490
H19_4 H 0.6815 0.0261 0.9444
H20_4 H 0.7469 0.0857 0.9658
loop_
_geom_bond_atom_site_label_1
_geom_bond_atom_site_label_2
_geom_bond_site_symmetry_1
_geom_bond_site_symmetry_2
Zn2 O1 1_555 1_555
O1 C9 1_555 1_555
O6 Zn2 1_555 1_555
O7 C15 1_555 1_555
O8 C15 1_555 1_555
C9 O6 1_555 1_555
C10 C9 1_555 1_555
C11 C10 1_555 1_555
H4 C11 1_555 1_555
C12 C11 1_555 1_555
C13 C12 1_555 1_555
H5 C13 1_555 1_555
C14 C13 1_555 1_555
C15 C14 1_555 1_555
C16 C10 1_555 1_555
H6 C16 1_555 1_555
H8 C18 1_555 1_555
H10 C18 1_555 1_555
N4 C12 1_555 1_555
O12 C26 1_555 1_555
O13 C26 1_555 1_555
O14 C32 1_555 1_555
O15 C32 1_555 1_555
C26 C27 1_555 1_555
C27 C28 1_555 1_555
C28 H28 1_555 1_555
C29 C28 1_555 1_555
C30 C29 1_555 1_555
H29 C30 1_555 1_555
C31 C30 1_555 1_555
C32 C31 1_555 1_555
C33 C27 1_555 1_555
H30 C33 1_555 1_555
N6 N4 1_555 1_555
Zn9 O7 1_555 1_555
Zn10 O12 1_555 1_555
Zn11 O14 1_555 1_555
O29 Zn2 1_555 1_555
O31 Zn2 1_555 1_555
O8 Zn9 1_555 1_555
C14 C16 1_555 1_555
O13 Zn10 1_555 1_555
O15 Zn11 1_555 1_555
C29 N6 1_555 1_555
C31 C33 1_555 1_555
O3 Zn1 1_555 1_555
O4 C7 1_555 1_555
O5 C7 1_555 1_555
O9 Zn1 1_555 1_555
O10 Zn1 1_555 1_555
O11 Zn1 1_555 1_555
N1 C17 1_555 1_555
N2 C20 1_555 1_555
N3 C23 1_555 1_555
C1 O2 1_555 1_555
C2 C1 1_555 1_555
C3 C2 1_555 1_555
H1 C3 1_555 1_555
C4 C3 1_555 1_555
C5 C4 1_555 1_555
H2 C5 1_555 1_555
C6 C5 1_555 1_555
C7 C6 1_555 1_555
C8 C2 1_555 1_555
H3 C8 1_555 1_555
C17 O9 1_555 1_555
H7 C17 1_555 1_555
C19 N1 1_555 1_555
H13 C19 1_555 1_555
C20 O10 1_555 1_555
H14 C20 1_555 1_555
C21 N2 1_555 1_555
H16 C21 1_555 1_555
H17 C21 1_555 1_555
C22 N2 1_555 1_555
H18 C22 1_555 1_555
H19 C22 1_555 1_555
H20 C22 1_555 1_555
C23 O11 1_555 1_555
H21 C23 1_555 1_555
C24 N3 1_555 1_555
H22 C24 1_555 1_555
H23 C24 1_555 1_555
H24 C24 1_555 1_555
C25 N3 1_555 1_555
H25 C25 1_555 1_555
H26 C25 1_555 1_555
H27 C25 1_555 1_555
N5 C4 1_555 1_555
O16 C34 1_555 1_555
O17 C34 1_555 1_555
O18 C40 1_555 1_555
O19 C40 1_555 1_555
C34 C35 1_555 1_555
C35 C36 1_555 1_555
C36 H31 1_555 1_555
C37 C36 1_555 1_555
C38 C37 1_555 1_555
H32 C38 1_555 1_555
C39 C38 1_555 1_555
C40 C39 1_555 1_555
C41 C35 1_555 1_555
H33 C41 1_555 1_555
N7 N5 1_555 1_555
Zn3 O17 1_555 1_555
O20 Zn3 1_555 1_555
O21 Zn3 1_555 1_555
O22 Zn3 1_555 1_555
N8 C42 1_555 1_555
N10 C48 1_555 1_555
C42 O20 1_555 1_555
H34 C42 1_555 1_555
C44 N8 1_555 1_555
H40 C44 1_555 1_555
C45 O21 1_555 1_555
H41 C45 1_555 1_555
C48 O22 1_555 1_555
H48 C48 1_555 1_555
C49 N10 1_555 1_555
H49 C49 1_555 1_555
H50 C49 1_555 1_555
H51 C49 1_555 1_555
C50 N10 1_555 1_555
H52 C50 1_555 1_555
H53 C50 1_555 1_555
H54 C50 1_555 1_555
Zn9 O5 1_555 1_555
Zn12 O19 1_555 1_555
O24 Zn1 1_555 1_555
O25 Zn3 1_555 1_555
O3 C1 1_555 1_555
C6 C8 1_555 1_555
C37 N7 1_555 1_555
C39 C41 1_555 1_555
H35 C43 1_555 1_555
H37 C43 1_555 1_555
O28 Zn4 1_555 1_555
O30 Zn4 1_555 1_555
O32 Zn4 1_555 1_555
Zn4 O23 1_555 1_555
H35_2 C43_2 1_555 1_555
H37_2 C43_2 1_555 1_555
O30_2 Zn10 1_555 1_555
O32_2 Zn10 1_555 1_555
O3_2 Zn1_2 1_555 1_555
O4_2 C7_2 1_555 1_555
O5_2 C7_2 1_555 1_555
O9_2 Zn1_2 1_555 1_555
O10_2 Zn1_2 1_555 1_555
O11_2 Zn1_2 1_555 1_555
N1_2 C17_2 1_555 1_555
N3_2 C23_2 1_555 1_555
C1_2 O2_2 1_555 1_555
C2_2 C1_2 1_555 1_555
C3_2 C2_2 1_555 1_555
H1_2 C3_2 1_555 1_555
C4_2 C3_2 1_555 1_555
C5_2 C4_2 1_555 1_555
H2_2 C5_2 1_555 1_555
C6_2 C5_2 1_555 1_555
C7_2 C6_2 1_555 1_555
C8_2 C2_2 1_555 1_555
H3_2 C8_2 1_555 1_555
C17_2 O9_2 1_555 1_555
H7_2 C17_2 1_555 1_555
C19_2 N1_2 1_555 1_555
H13_2 C19_2 1_555 1_555
C20_2 O10_2 1_555 1_555
H14_2 C20_2 1_555 1_555
C23_2 O11_2 1_555 1_555
H21_2 C23_2 1_555 1_555
C24_2 N3_2 1_555 1_555
H22_2 C24_2 1_555 1_555
H23_2 C24_2 1_555 1_555
H24_2 C24_2 1_555 1_555
C25_2 N3_2 1_555 1_555
H25_2 C25_2 1_555 1_555
H26_2 C25_2 1_555 1_555
H27_2 C25_2 1_555 1_555
N5_2 C4_2 1_555 1_555
O16_2 C34_2 1_555 1_555
O17_2 C34_2 1_555 1_555
O18_2 C40_2 1_555 1_555
O19_2 C40_2 1_555 1_555
C34_2 C35_2 1_555 1_555
C35_2 C36_2 1_555 1_555
C36_2 H31_2 1_555 1_555
C37_2 C36_2 1_555 1_555
C38_2 C37_2 1_555 1_555
H32_2 C38_2 1_555 1_555
C39_2 C38_2 1_555 1_555
C40_2 C39_2 1_555 1_555
C41_2 C35_2 1_555 1_555
H33_2 C41_2 1_555 1_555
N7_2 N5_2 1_555 1_555
Zn6 O17_2 1_555 1_555
O20_2 Zn6 1_555 1_555
O21_2 Zn6 1_555 1_555
O22_2 Zn6 1_555 1_555
N8_2 C42_2 1_555 1_555
N9 C45_2 1_555 1_555
N10_2 C48_2 1_555 1_555
C42_2 O20_2 1_555 1_555
H34_2 C42_2 1_555 1_555
C44_2 N8_2 1_555 1_555
H40_2 C44_2 1_555 1_555
C45_2 O21_2 1_555 1_555
H41_2 C45_2 1_555 1_555
C46 N9 1_555 1_555
H43 C46 1_555 1_555
H44 C46 1_555 1_555
C47 N9 1_555 1_555
H45 C47 1_555 1_555
H46 C47 1_555 1_555
H47 C47 1_555 1_555
C48_2 O22_2 1_555 1_555
H48_2 C48_2 1_555 1_555
C49_2 N10_2 1_555 1_555
H49_2 C49_2 1_555 1_555
H50_2 C49_2 1_555 1_555
H51_2 C49_2 1_555 1_555
C50_2 N10_2 1_555 1_555
H52_2 C50_2 1_555 1_555
H53_2 C50_2 1_555 1_555
H54_2 C50_2 1_555 1_555
Zn8 O5_2 1_555 1_555
Zn11 O19_2 1_555 1_555
O24_2 Zn1_2 1_555 1_555
O25_2 Zn6 1_555 1_555
O3_2 C1_2 1_555 1_555
C6_2 C8_2 1_555 1_555
C37_2 N7_2 1_555 1_555
C39_2 C41_2 1_555 1_555
Zn2_2 O1_2 1_555 1_555
O1_2 C9_2 1_555 1_555
O6_2 Zn2_2 1_555 1_555
O7_2 C15_2 1_555 1_555
O8_2 C15_2 1_555 1_555
C9_2 O6_2 1_555 1_555
C10_2 C9_2 1_555 1_555
C11_2 C10_2 1_555 1_555
H4_2 C11_2 1_555 1_555
C12_2 C11_2 1_555 1_555
C13_2 C12_2 1_555 1_555
H5_2 C13_2 1_555 1_555
C14_2 C13_2 1_555 1_555
C15_2 C14_2 1_555 1_555
C16_2 C10_2 1_555 1_555
H6_2 C16_2 1_555 1_555
H8_2 C18_2 1_555 1_555
H10_2 C18_2 1_555 1_555
N4_2 C12_2 1_555 1_555
Zn8 O7_2 1_555 1_555
O29_2 Zn2_2 1_555 1_555
O31_2 Zn2_2 1_555 1_555
O8_2 Zn8 1_555 1_555
C14_2 C16_2 1_555 1_555
O23 C26_2 1_555 1_555
O28 C26_2 1_555 1_555
O14_2 C32_2 1_555 1_555
O15_2 C32_2 1_555 1_555
C26_2 C27_2 1_555 1_555
C27_2 C28_2 1_555 1_555
C28_2 H28_2 1_555 1_555
C29_2 C28_2 1_555 1_555
C30_2 C29_2 1_555 1_555
H29_2 C30_2 1_555 1_555
C31_2 C30_2 1_555 1_555
C32_2 C31_2 1_555 1_555
C33_2 C27_2 1_555 1_555
H30_2 C33_2 1_555 1_555
Zn12 O14_2 1_555 1_555
O15_2 Zn12 1_555 1_555
C29_2 N6_2 1_555 1_555
C31_2 C33_2 1_555 1_555
Zn5 O1_3 1_555 1_555
O1_3 C9_3 1_555 1_555
O3_3 Zn5 1_555 1_555
O24 C7_3 1_555 1_555
O26 C7_3 1_555 1_555
O29 C15_3 1_555 1_555
O31 C15_3 1_555 1_555
O9_3 Zn5 1_555 1_555
O10_3 Zn5 1_555 1_555
O11_3 Zn5 1_555 1_555
N1_3 C17_3 1_555 1_555
N2_2 C20_3 1_555 1_555
N3_3 C23_3 1_555 1_555
C1_3 O2_3 1_555 1_555
C2_3 C1_3 1_555 1_555
C3_3 C2_3 1_555 1_555
H1_3 C3_3 1_555 1_555
C4_3 C3_3 1_555 1_555
C5_3 C4_3 1_555 1_555
H2_3 C5_3 1_555 1_555
C6_3 C5_3 1_555 1_555
C7_3 C6_3 1_555 1_555
C8_3 C2_3 1_555 1_555
H3_3 C8_3 1_555 1_555
C9_3 O6_3 1_555 1_555
C10_3 C9_3 1_555 1_555
C11_3 C10_3 1_555 1_555
H4_3 C11_3 1_555 1_555
C12_3 C11_3 1_555 1_555
C13_3 C12_3 1_555 1_555
H5_3 C13_3 1_555 1_555
C14_3 C13_3 1_555 1_555
C15_3 C14_3 1_555 1_555
C16_3 C10_3 1_555 1_555
H6_3 C16_3 1_555 1_555
C17_3 O9_3 1_555 1_555
H7_3 C17_3 1_555 1_555
C18_3 N1_3 1_555 1_555
H8_3 C18_3 1_555 1_555
H9_3 C18_3 1_555 1_555
H10_3 C18_3 1_555 1_555
C19_3 N1_3 1_555 1_555
H11_3 C19_3 1_555 1_555
H12_3 C19_3 1_555 1_555
H13_3 C19_3 1_555 1_555
C20_3 O10_3 1_555 1_555
H14_3 C20_3 1_555 1_555
C21_2 N2_2 1_555 1_555
H15_3 C21_2 1_555 1_555
C22_2 N2_2 1_555 1_555
H18_2 C22_2 1_555 1_555
H19_2 C22_2 1_555 1_555
H20_2 C22_2 1_555 1_555
C23_3 O11_3 1_555 1_555
H21_3 C23_3 1_555 1_555
C24_3 N3_3 1_555 1_555
H23_3 C24_3 1_555 1_555
H24_3 C24_3 1_555 1_555
C25_3 N3_3 1_555 1_555
H25_3 C25_3 1_555 1_555
H26_3 C25_3 1_555 1_555
H27_3 C25_3 1_555 1_555
N4_3 C12_3 1_555 1_555
N5_3 C4_3 1_555 1_555
O12_2 C26_3 1_555 1_555
O13_2 C26_3 1_555 1_555
O30 C32_3 1_555 1_555
O32 C32_3 1_555 1_555
C26_3 C27_3 1_555 1_555
C27_3 C28_3 1_555 1_555
C28_3 H28_3 1_555 1_555
C29_3 C28_3 1_555 1_555
C30_3 C29_3 1_555 1_555
H29_3 C30_3 1_555 1_555
C31_3 C30_3 1_555 1_555
C32_3 C31_3 1_555 1_555
C33_3 C27_3 1_555 1_555
H30_3 C33_3 1_555 1_555
N6_3 N4_3 1_555 1_555
O16_3 C34_3 1_555 1_555
O17_3 C34_3 1_555 1_555
O25_2 C40_3 1_555 1_555
O27_2 C40_3 1_555 1_555
C34_3 C35_3 1_555 1_555
C35_3 C36_3 1_555 1_555
C36_3 H31_3 1_555 1_555
C37_3 C36_3 1_555 1_555
C38_3 C37_3 1_555 1_555
H32_3 C38_3 1_555 1_555
C39_3 C38_3 1_555 1_555
C40_3 C39_3 1_555 1_555
C41_3 C35_3 1_555 1_555
H33_3 C41_3 1_555 1_555
N7_3 N5_3 1_555 1_555
Zn7_2 O17_3 1_555 1_555
O20_3 Zn7_2 1_555 1_555
O21_3 Zn7_2 1_555 1_555
O22_3 Zn7_2 1_555 1_555
N8_3 C42_3 1_555 1_555
N9_2 C45_3 1_555 1_555
N10_3 C48_3 1_555 1_555
C42_3 O20_3 1_555 1_555
H34_3 C42_3 1_555 1_555
C43_3 N8_3 1_555 1_555
H35_3 C43_3 1_555 1_555
H36_3 C43_3 1_555 1_555
H37_3 C43_3 1_555 1_555
C44_3 N8_3 1_555 1_555
H38_3 C44_3 1_555 1_555
H39_3 C44_3 1_555 1_555
H40_3 C44_3 1_555 1_555
C45_3 O21_3 1_555 1_555
H41_3 C45_3 1_555 1_555
C46_2 N9_2 1_555 1_555
H42_3 C46_2 1_555 1_555
C47_2 N9_2 1_555 1_555
H45_2 C47_2 1_555 1_555
H46_2 C47_2 1_555 1_555
H47_2 C47_2 1_555 1_555
C48_3 O22_3 1_555 1_555
H48_3 C48_3 1_555 1_555
C49_3 N10_3 1_555 1_555
H50_3 C49_3 1_555 1_555
H51_3 C49_3 1_555 1_555
C50_3 N10_3 1_555 1_555
H52_3 C50_3 1_555 1_555
H53_3 C50_3 1_555 1_555
H54_3 C50_3 1_555 1_555
Zn7 O12_2 1_555 1_555
O23_2 Zn7_2 1_555 1_555
O3_3 C1_3 1_555 1_555
C6_3 C8_3 1_555 1_555
C14_3 C16_3 1_555 1_555
C29_3 N6_3 1_555 1_555
C31_3 C33_3 1_555 1_555
C37_3 N7_3 1_555 1_555
C39_3 C41_3 1_555 1_555
Zn5_2 O1_4 1_555 1_555
O1_4 C9_4 1_555 1_555
O3_4 Zn5_2 1_555 1_555
O24_2 C7_4 1_555 1_555
O26_2 C7_4 1_555 1_555
O29_2 C15_4 1_555 1_555
O31_2 C15_4 1_555 1_555
O9_4 Zn5_2 1_555 1_555
O10_4 Zn5_2 1_555 1_555
O11_4 Zn5_2 1_555 1_555
N1_4 C17_4 1_555 1_555
N2_3 C20_4 1_555 1_555
N3_4 C23_4 1_555 1_555
C1_4 O2_4 1_555 1_555
C2_4 C1_4 1_555 1_555
C3_4 C2_4 1_555 1_555
H1_4 C3_4 1_555 1_555
C4_4 C3_4 1_555 1_555
C5_4 C4_4 1_555 1_555
H2_4 C5_4 1_555 1_555
C6_4 C5_4 1_555 1_555
C7_4 C6_4 1_555 1_555
C8_4 C2_4 1_555 1_555
H3_4 C8_4 1_555 1_555
C9_4 O6_4 1_555 1_555
C10_4 C9_4 1_555 1_555
C11_4 C10_4 1_555 1_555
H4_4 C11_4 1_555 1_555
C12_4 C11_4 1_555 1_555
C13_4 C12_4 1_555 1_555
H5_4 C13_4 1_555 1_555
C14_4 C13_4 1_555 1_555
C15_4 C14_4 1_555 1_555
C16_4 C10_4 1_555 1_555
H6_4 C16_4 1_555 1_555
C17_4 O9_4 1_555 1_555
H7_4 C17_4 1_555 1_555
C18_4 N1_4 1_555 1_555
H8_4 C18_4 1_555 1_555
H9_4 C18_4 1_555 1_555
H10_4 C18_4 1_555 1_555
C19_4 N1_4 1_555 1_555
H11_4 C19_4 1_555 1_555
H12_4 C19_4 1_555 1_555
H13_4 C19_4 1_555 1_555
C20_4 O10_4 1_555 1_555
H14_4 C20_4 1_555 1_555
C21_3 N2_3 1_555 1_555
H15_4 C21_3 1_555 1_555
C22_3 N2_3 1_555 1_555
H18_3 C22_3 1_555 1_555
H19_3 C22_3 1_555 1_555
H20_3 C22_3 1_555 1_555
C23_4 O11_4 1_555 1_555
H21_4 C23_4 1_555 1_555
C24_4 N3_4 1_555 1_555
H23_4 C24_4 1_555 1_555
H24_4 C24_4 1_555 1_555
C25_4 N3_4 1_555 1_555
H25_4 C25_4 1_555 1_555
H26_4 C25_4 1_555 1_555
H27_4 C25_4 1_555 1_555
N4_4 C12_4 1_555 1_555
N5_4 C4_4 1_555 1_555
O23_2 C26_4 1_555 1_555
O28_2 C26_4 1_555 1_555
O30_2 C32_4 1_555 1_555
O32_2 C32_4 1_555 1_555
C26_4 C27_4 1_555 1_555
C27_4 C28_4 1_555 1_555
C28_4 H28_4 1_555 1_555
C29_4 C28_4 1_555 1_555
C30_4 C29_4 1_555 1_555
H29_4 C30_4 1_555 1_555
C31_4 C30_4 1_555 1_555
C32_4 C31_4 1_555 1_555
C33_4 C27_4 1_555 1_555
H30_4 C33_4 1_555 1_555
N6_4 N4_4 1_555 1_555
O3_4 C1_4 1_555 1_555
C6_4 C8_4 1_555 1_555
C14_4 C16_4 1_555 1_555
C29_4 N6_4 1_555 1_555
C31_4 C33_4 1_555 1_555
O16_4 C34_4 1_555 1_555
O17_4 C34_4 1_555 1_555
O25 C40_4 1_555 1_555
O27 C40_4 1_555 1_555
C34_4 C35_4 1_555 1_555
C35_4 C36_4 1_555 1_555
C36_4 H31_4 1_555 1_555
C37_4 C36_4 1_555 1_555
C38_4 C37_4 1_555 1_555
H32_4 C38_4 1_555 1_555
C39_4 C38_4 1_555 1_555
C40_4 C39_4 1_555 1_555
C41_4 C35_4 1_555 1_555
H33_4 C41_4 1_555 1_555
Zn7 O17_4 1_555 1_555
O20_4 Zn7 1_555 1_555
O21_4 Zn7 1_555 1_555
O22_4 Zn7 1_555 1_555
N8_4 C42_4 1_555 1_555
N9_3 C45_4 1_555 1_555
N10_4 C48_4 1_555 1_555
C42_4 O20_4 1_555 1_555
H34_4 C42_4 1_555 1_555
C43_4 N8_4 1_555 1_555
H35_4 C43_4 1_555 1_555
H36_4 C43_4 1_555 1_555
H37_4 C43_4 1_555 1_555
C44_4 N8_4 1_555 1_555
H38_4 C44_4 1_555 1_555
H39_4 C44_4 1_555 1_555
H40_4 C44_4 1_555 1_555
C45_4 O21_4 1_555 1_555
H41_4 C45_4 1_555 1_555
C46_3 N9_3 1_555 1_555
H42_4 C46_3 1_555 1_555
C47_3 N9_3 1_555 1_555
H45_3 C47_3 1_555 1_555
H46_3 C47_3 1_555 1_555
H47_3 C47_3 1_555 1_555
C48_4 O22_4 1_555 1_555
H48_4 C48_4 1_555 1_555
C49_4 N10_4 1_555 1_555
H50_4 C49_4 1_555 1_555
H51_4 C49_4 1_555 1_555
C50_4 N10_4 1_555 1_555
H52_4 C50_4 1_555 1_555
H53_4 C50_4 1_555 1_555
H54_4 C50_4 1_555 1_555
C37_4 N7_4 1_555 1_555
C39_4 C41_4 1_555 1_555
C46_4 N9_4 1_555 1_555
H43_4 C46_4 1_555 1_555
H44_4 C46_4 1_555 1_555
C47_4 N9_4 1_555 1_555
H45_4 C47_4 1_555 1_555
H46_4 C47_4 1_555 1_555
H47_4 C47_4 1_555 1_555
C21_4 N2_4 1_555 1_555
H16_4 C21_4 1_555 1_555
H17_4 C21_4 1_555 1_555
C22_4 N2_4 1_555 1_555
H18_4 C22_4 1_555 1_555
H19_4 C22_4 1_555 1_555
H20_4 C22_4 1_555 1_555

#END
