
###############################################################################
#
# This file contains modified crystal structure data generated from the
# MOF subset of the Cambridge Structural Database (CSD) v542 
# hosted by the Cambridge Crystallographic Data Centre (CCDC).
#
# This work is licensed under the Creative Commons
# Attribution-NonCommercial-ShareAlike 4.0 International License.
# To view a copy of this license, visit
# http://creativecommons.org/licenses/by-nc-sa/4.0/
# or send a letter to
# Creative Commons, PO Box 1866, Mountain View, CA 94042, USA.
#
# CIF created using the CSD Python API on 22 February 2021
# The structure has been converted into the P1 space group
# The structure has a 3D framework
# The original CSD entry VOSQIG01 is in the cubic crystal system
# The framework has been calculated to contain at least 10.0% void space
# The void calculation uses a probe of radius 1.32A, grid spacing 0.4
# The framework is charged, counterions have been retained in the structure
#
###############################################################################

data_VOSQIG01
_chemical_formula_moiety         '(C288 H240 In16 N48 Na11 O144 S48 11+)n'
_symmetry_cell_setting           triclinic
_symmetry_space_group_name_H-M   'P 1'
_symmetry_Int_Tables_number      1
_space_group_name_Hall           'P 1'
loop_
_symmetry_equiv_pos_site_id
_symmetry_equiv_pos_as_xyz
1 x,y,z
_cell_length_a                   21.5532(3)
_cell_length_b                   21.5532(3)
_cell_length_c                   21.5532(3)
_cell_angle_alpha                90
_cell_angle_beta                 90
_cell_angle_gamma                90
_cell_volume                     10012.3
loop_
_atom_site_label
_atom_site_type_symbol
_atom_site_fract_x
_atom_site_fract_y
_atom_site_fract_z
In5 In 0.08283(2) 0.08283(2) 0.41717(2)
Na3 Na 0.000000 0.000000 0.500000
Na4 Na 0.000000 0.500000 0.000000
Na4_2 Na 0.000000 0.500000 1.000000
Na3_2 Na 0.000000 1.000000 0.500000
In1 In 0.58283(2) 0.58283(2) 0.58283(2)
S1 S 0.70526(4) 0.36521(4) 0.26145(4)
Na1 Na 0.500000 0.500000 0.500000
O1 O 0.60442(11) 0.52468(12) 0.49709(11)
N1 N 0.64257(13) 0.41384(14) 0.34790(13)
O2 O 0.61796(15) 0.67863(14) 0.55960(19)
O3 O 0.69567(17) 0.56607(17) 0.49282(17)
C1 C 0.69890(16) 0.41667(15) 0.32428(15)
C2 C 0.67165(15) 0.49126(15) 0.41964(15)
C3 C 0.65645(17) 0.53076(16) 0.47395(17)
C4 C 0.74369(16) 0.45520(16) 0.34552(15)
H3 H 0.782940 0.455734 0.327597
C5 C 0.72953(16) 0.49298(16) 0.39376(16)
H4 H 0.759249 0.520132 0.409289
C6 C 0.62991(16) 0.45109(17) 0.39495(16)
H5 H 0.590317 0.449705 0.412040
S2 S 0.79474(4) 0.36521(4) 0.23855(4)
O4 O 0.89558(11) 0.52468(12) 0.00291(11)
N2 N 0.85743(13) 0.41384(14) 0.15210(13)
O5 O 0.80433(17) 0.56607(17) 0.00718(17)
C7 C 0.80110(16) 0.41667(15) 0.17572(15)
C8 C 0.82835(15) 0.49126(15) 0.08036(15)
C9 C 0.84355(17) 0.53076(16) 0.02605(17)
C10 C 0.75631(16) 0.45520(16) 0.15448(15)
H6 H 0.717060 0.455734 0.172403
C11 C 0.77047(16) 0.49298(16) 0.10624(16)
H7 H 0.740751 0.520132 0.090711
C12 C 0.87009(16) 0.45109(17) 0.10505(16)
H8 H 0.909683 0.449705 0.087960
In2 In 0.41717(2) 0.41717(2) 0.41717(2)
S3 S 0.73855(4) 0.29474(4) 0.63479(4)
O6 O 0.50291(11) 0.39558(11) 0.47532(12)
N3 N 0.65210(13) 0.35743(13) 0.58616(14)
O7 O 0.44040(19) 0.38204(15) 0.32137(14)
O8 O 0.50718(17) 0.30433(17) 0.43393(17)
C13 C 0.67572(15) 0.30110(16) 0.58333(15)
C14 C 0.58036(15) 0.32835(15) 0.50874(15)
C15 C 0.52605(17) 0.34355(17) 0.46924(16)
C16 C 0.65448(15) 0.25631(16) 0.54480(16)
H11 H 0.672403 0.217060 0.544266
C17 C 0.60624(16) 0.27047(16) 0.50702(16)
H12 H 0.590711 0.240751 0.479868
C18 C 0.60505(16) 0.37009(16) 0.54891(17)
H13 H 0.587960 0.409683 0.550295
S4 S 0.76145(4) 0.20526(4) 0.63479(4)
O9 O 0.99709(11) 0.10442(11) 0.47532(12)
N4 N 0.84790(13) 0.14257(13) 0.58616(14)
O10 O 0.99282(17) 0.19567(17) 0.43393(17)
C19 C 0.82428(15) 0.19890(16) 0.58333(15)
C20 C 0.91964(15) 0.17165(15) 0.50874(15)
C21 C 0.97395(17) 0.15645(17) 0.46924(16)
C22 C 0.84552(15) 0.24369(16) 0.54480(16)
H14 H 0.827597 0.282940 0.544266
C23 C 0.89376(16) 0.22953(16) 0.50702(16)
H15 H 0.909289 0.259249 0.479868
C24 C 0.89495(16) 0.12991(16) 0.54891(17)
H16 H 0.912040 0.090317 0.550295
S5 S 0.26145(4) 0.70526(4) 0.36521(4)
O11 O 0.49709(11) 0.60442(11) 0.52468(12)
N5 N 0.34790(13) 0.64257(13) 0.41384(14)
O12 O 0.49282(17) 0.69567(17) 0.56607(17)
C25 C 0.32428(15) 0.69890(16) 0.41667(15)
C26 C 0.41964(15) 0.67165(15) 0.49126(15)
C27 C 0.47395(17) 0.65645(17) 0.53076(16)
C28 C 0.34552(15) 0.74369(16) 0.45520(16)
H17 H 0.327597 0.782940 0.455734
C29 C 0.39376(16) 0.72953(16) 0.49298(16)
H18 H 0.409289 0.759249 0.520132
C30 C 0.39495(16) 0.62991(16) 0.45109(17)
H19 H 0.412040 0.590317 0.449705
S6 S 0.23855(4) 0.79474(4) 0.36521(4)
O13 O 0.00291(11) 0.89558(11) 0.52468(12)
N6 N 0.15210(13) 0.85743(13) 0.41384(14)
O14 O 0.00718(17) 0.80433(17) 0.56607(17)
C31 C 0.17572(15) 0.80110(16) 0.41667(15)
C32 C 0.08036(15) 0.82835(15) 0.49126(15)
C33 C 0.02605(17) 0.84355(17) 0.53076(16)
C34 C 0.15448(15) 0.75631(16) 0.45520(16)
H20 H 0.172403 0.717060 0.455734
C35 C 0.10624(16) 0.77047(16) 0.49298(16)
H21 H 0.090711 0.740751 0.520132
C36 C 0.10505(16) 0.87009(16) 0.45109(17)
H22 H 0.087960 0.909683 0.449705
O15 O 0.55960(19) 0.61796(15) 0.67863(14)
O16 O 0.67863(14) 0.55960(19) 0.61796(15)
O17 O 0.32137(14) 0.44040(19) 0.38204(15)
O18 O 0.38204(15) 0.32137(14) 0.44040(19)
Na3_3 Na 1.000000 0.000000 0.500000
Na4_3 Na 1.000000 0.500000 0.000000
O19 O 0.52468(12) 0.49709(11) 0.60442(11)
O20 O 0.39558(11) 0.47532(12) 0.50291(11)
O21 O 0.47532(12) 0.50291(11) 0.39558(11)
In4 In 0.91717(2) 0.58283(2) 0.91717(2)
Na4_4 Na 1.000000 0.500000 1.000000
Na3_4 Na 1.000000 1.000000 0.500000
In3 In 0.91717(2) 0.91717(2) 0.58283(2)
O7_2 O 0.05960(19) 0.11796(15) 0.32137(14)
O17_2 O 0.17863(14) 0.05960(19) 0.38204(15)
O18_2 O 0.11796(15) 0.17863(14) 0.44040(19)
O20_2 O 0.10442(11) 0.02468(12) 0.50291(11)
O21_2 O 0.02468(12) 0.99709(11) 0.39558(11)
S1_2 S 0.79474(4) 0.13479(4) 0.26145(4)
N1_2 N 0.85743(13) 0.08616(14) 0.34790(13)
C1_2 C 0.80110(16) 0.08333(15) 0.32428(15)
C2_2 C 0.82835(15) 0.00874(15) 0.41964(15)
C4_2 C 0.75631(16) 0.04480(16) 0.34552(15)
H3_2 H 0.717060 0.044266 0.327597
C5_2 C 0.77047(16) 0.00702(16) 0.39376(16)
C6_2 C 0.87009(16) 0.04891(17) 0.39495(16)
H5_2 H 0.909683 0.050295 0.412040
S2_2 S 0.70526(4) 0.13479(4) 0.23855(4)
N2_2 N 0.64257(13) 0.08616(14) 0.15210(13)
C7_2 C 0.69890(16) 0.08333(15) 0.17572(15)
C8_2 C 0.67165(15) 0.00874(15) 0.08036(15)
C10_2 C 0.74369(16) 0.04480(16) 0.15448(15)
H6_2 H 0.782940 0.044266 0.172403
C11_2 C 0.72953(16) 0.00702(16) 0.10624(16)
C12_2 C 0.62991(16) 0.04891(17) 0.10505(16)
H8_2 H 0.590317 0.050295 0.087960
Na4_5 Na 0.500000 0.000000 0.000000
O19_2 O 0.97532(12) 0.00291(11) 0.60442(11)
Na4_6 Na 0.500000 0.000000 1.000000
O1_2 O 0.89558(11) 0.97532(12) 0.49709(11)
O2_2 O 0.88204(15) 0.82137(14) 0.55960(19)
O3_2 O 0.80433(17) 0.93393(17) 0.49282(17)
C3_2 C 0.84355(17) 0.96924(16) 0.47395(17)
H4_2 H 0.740751 0.979868 0.409289
O4_2 O 0.60442(11) 0.97532(12) 0.00291(11)
O5_2 O 0.69567(17) 0.93393(17) 0.00718(17)
C9_2 C 0.65645(17) 0.96924(16) 0.02605(17)
H7_2 H 0.759249 0.979868 0.090711
O15_2 O 0.94040(19) 0.88204(15) 0.67863(14)
O16_2 O 0.82137(14) 0.94040(19) 0.61796(15)
Na4_7 Na 0.500000 1.000000 0.000000
In4_2 In 0.58283(2) 0.91717(2) 0.91717(2)
Na4_8 Na 0.500000 1.000000 1.000000
In2_2 In 0.08283(2) 0.41717(2) 0.08283(2)
O7_3 O 0.05960(19) 0.38204(15) 0.17863(14)
S5_2 S 0.23855(4) 0.70526(4) 0.13479(4)
N5_2 N 0.15210(13) 0.64257(13) 0.08616(14)
C25_2 C 0.17572(15) 0.69890(16) 0.08333(15)
C26_2 C 0.08036(15) 0.67165(15) 0.00874(15)
C28_2 C 0.15448(15) 0.74369(16) 0.04480(16)
H17_2 H 0.172403 0.782940 0.044266
C29_2 C 0.10624(16) 0.72953(16) 0.00702(16)
C30_2 C 0.10505(16) 0.62991(16) 0.04891(17)
H19_2 H 0.087960 0.590317 0.050295
S6_2 S 0.26145(4) 0.79474(4) 0.13479(4)
N6_2 N 0.34790(13) 0.85743(13) 0.08616(14)
C31_2 C 0.32428(15) 0.80110(16) 0.08333(15)
C32_2 C 0.41964(15) 0.82835(15) 0.00874(15)
C34_2 C 0.34552(15) 0.75631(16) 0.04480(16)
H20_2 H 0.327597 0.717060 0.044266
C35_2 C 0.39376(16) 0.77047(16) 0.00702(16)
C36_2 C 0.39495(16) 0.87009(16) 0.04891(17)
H22_2 H 0.412040 0.909683 0.050295
O17_3 O 0.17863(14) 0.44040(19) 0.11796(15)
O18_3 O 0.11796(15) 0.32137(14) 0.05960(19)
O21_3 O 0.02468(12) 0.50291(11) 0.10442(11)
O11_2 O 0.00291(11) 0.60442(11) 0.97532(12)
O12_2 O 0.00718(17) 0.69567(17) 0.93393(17)
C27_2 C 0.02605(17) 0.65645(17) 0.96924(16)
H18_2 H 0.090711 0.759249 0.979868
O13_2 O 0.49709(11) 0.89558(11) 0.97532(12)
O14_2 O 0.49282(17) 0.80433(17) 0.93393(17)
C33_2 C 0.47395(17) 0.84355(17) 0.96924(16)
H21_2 H 0.409289 0.740751 0.979868
O20_3 O 0.10442(11) 0.47532(12) 0.99709(11)
O6_2 O 0.99709(11) 0.39558(11) 0.02468(12)
O8_2 O 0.99282(17) 0.30433(17) 0.06607(17)
C15_2 C 0.97395(17) 0.34355(17) 0.03076(16)
H12_2 H 0.909289 0.240751 0.020132
O9_2 O 0.50291(11) 0.10442(11) 0.02468(12)
O10_2 O 0.50718(17) 0.19567(17) 0.06607(17)
C21_2 C 0.52605(17) 0.15645(17) 0.03076(16)
H15_2 H 0.590711 0.259249 0.020132
In5_2 In 0.41717(2) 0.08283(2) 0.08283(2)
O2_3 O 0.88204(15) 0.67863(14) 0.94040(19)
S3_2 S 0.76145(4) 0.29474(4) 0.86521(4)
N3_2 N 0.84790(13) 0.35743(13) 0.91384(14)
C13_2 C 0.82428(15) 0.30110(16) 0.91667(15)
C14_2 C 0.91964(15) 0.32835(15) 0.99126(15)
C16_2 C 0.84552(15) 0.25631(16) 0.95520(16)
H11_2 H 0.827597 0.217060 0.955734
C17_2 C 0.89376(16) 0.27047(16) 0.99298(16)
C18_2 C 0.89495(16) 0.37009(16) 0.95109(17)
H13_2 H 0.912040 0.409683 0.949705
S4_2 S 0.73855(4) 0.20526(4) 0.86521(4)
N4_2 N 0.65210(13) 0.14257(13) 0.91384(14)
C19_2 C 0.67572(15) 0.19890(16) 0.91667(15)
C20_2 C 0.58036(15) 0.17165(15) 0.99126(15)
C22_2 C 0.65448(15) 0.24369(16) 0.95520(16)
H14_2 H 0.672403 0.282940 0.955734
C23_2 C 0.60624(16) 0.22953(16) 0.99298(16)
C24_2 C 0.60505(16) 0.12991(16) 0.95109(17)
H16_2 H 0.587960 0.090317 0.949705
O15_3 O 0.94040(19) 0.61796(15) 0.82137(14)
O16_3 O 0.82137(14) 0.55960(19) 0.88204(15)
O19_3 O 0.97532(12) 0.49709(11) 0.89558(11)
O7_4 O 0.44040(19) 0.11796(15) 0.17863(14)
O17_4 O 0.32137(14) 0.05960(19) 0.11796(15)
O18_4 O 0.38204(15) 0.17863(14) 0.05960(19)
O19_4 O 0.52468(12) 0.00291(11) 0.89558(11)
O20_4 O 0.39558(11) 0.02468(12) 0.99709(11)
O21_4 O 0.47532(12) 0.99709(11) 0.10442(11)
O2_4 O 0.61796(15) 0.82137(14) 0.94040(19)
O15_4 O 0.55960(19) 0.88204(15) 0.82137(14)
O16_4 O 0.67863(14) 0.94040(19) 0.88204(15)
S3_3 S 0.63479(4) 0.73855(4) 0.29474(4)
N3_3 N 0.58616(14) 0.65210(13) 0.35743(13)
O8_3 O 0.43393(17) 0.50718(17) 0.30433(17)
C13_3 C 0.58333(15) 0.67572(15) 0.30110(16)
C14_3 C 0.50874(15) 0.58036(15) 0.32835(15)
C15_3 C 0.46924(16) 0.52605(17) 0.34355(17)
C16_3 C 0.54480(16) 0.65448(15) 0.25631(16)
H11_3 H 0.544266 0.672403 0.217060
C17_3 C 0.50702(16) 0.60624(16) 0.27047(16)
H12_3 H 0.479868 0.590711 0.240751
C18_3 C 0.54891(17) 0.60505(16) 0.37009(16)
H13_3 H 0.550295 0.587960 0.409683
S4_3 S 0.63479(4) 0.76145(4) 0.20526(4)
N4_3 N 0.58616(14) 0.84790(13) 0.14257(13)
O10_3 O 0.43393(17) 0.99282(17) 0.19567(17)
C19_3 C 0.58333(15) 0.82428(15) 0.19890(16)
C20_3 C 0.50874(15) 0.91964(15) 0.17165(15)
C21_3 C 0.46924(16) 0.97395(17) 0.15645(17)
C22_3 C 0.54480(16) 0.84552(15) 0.24369(16)
H14_3 H 0.544266 0.827597 0.282940
C23_3 C 0.50702(16) 0.89376(16) 0.22953(16)
H15_3 H 0.479868 0.909289 0.259249
C24_3 C 0.54891(17) 0.89495(16) 0.12991(16)
H16_3 H 0.550295 0.912040 0.090317
S5_3 S 0.36521(4) 0.26145(4) 0.70526(4)
N5_3 N 0.41384(14) 0.34790(13) 0.64257(13)
O12_3 O 0.56607(17) 0.49282(17) 0.69567(17)
C25_3 C 0.41667(15) 0.32428(15) 0.69890(16)
C26_3 C 0.49126(15) 0.41964(15) 0.67165(15)
C27_3 C 0.53076(16) 0.47395(17) 0.65645(17)
C28_3 C 0.45520(16) 0.34552(15) 0.74369(16)
H17_3 H 0.455734 0.327597 0.782940
C29_3 C 0.49298(16) 0.39376(16) 0.72953(16)
H18_3 H 0.520132 0.409289 0.759249
C30_3 C 0.45109(17) 0.39495(16) 0.62991(16)
H19_3 H 0.449705 0.412040 0.590317
S6_3 S 0.36521(4) 0.23855(4) 0.79474(4)
N6_3 N 0.41384(14) 0.15210(13) 0.85743(13)
O14_3 O 0.56607(17) 0.00718(17) 0.80433(17)
C31_3 C 0.41667(15) 0.17572(15) 0.80110(16)
C32_3 C 0.49126(15) 0.08036(15) 0.82835(15)
C33_3 C 0.53076(16) 0.02605(17) 0.84355(17)
C34_3 C 0.45520(16) 0.15448(15) 0.75631(16)
H20_3 H 0.455734 0.172403 0.717060
C35_3 C 0.49298(16) 0.10624(16) 0.77047(16)
H21_3 H 0.520132 0.090711 0.740751
C36_3 C 0.45109(17) 0.10505(16) 0.87009(16)
H22_3 H 0.449705 0.087960 0.909683
S5_4 S 0.13479(4) 0.23855(4) 0.70526(4)
N5_4 N 0.08616(14) 0.15210(13) 0.64257(13)
C25_4 C 0.08333(15) 0.17572(15) 0.69890(16)
C26_4 C 0.00874(15) 0.08036(15) 0.67165(15)
C28_4 C 0.04480(16) 0.15448(15) 0.74369(16)
H17_4 H 0.044266 0.172403 0.782940
C29_4 C 0.00702(16) 0.10624(16) 0.72953(16)
C30_4 C 0.04891(17) 0.10505(16) 0.62991(16)
H19_4 H 0.050295 0.087960 0.590317
S6_4 S 0.13479(4) 0.26145(4) 0.79474(4)
N6_4 N 0.08616(14) 0.34790(13) 0.85743(13)
C31_4 C 0.08333(15) 0.32428(15) 0.80110(16)
C32_4 C 0.00874(15) 0.41964(15) 0.82835(15)
C34_4 C 0.04480(16) 0.34552(15) 0.75631(16)
H20_4 H 0.044266 0.327597 0.717060
C35_4 C 0.00702(16) 0.39376(16) 0.77047(16)
C36_4 C 0.04891(17) 0.39495(16) 0.87009(16)
H22_4 H 0.050295 0.412040 0.909683
O8_4 O 0.06607(17) 0.99282(17) 0.30433(17)
C15_4 C 0.03076(16) 0.97395(17) 0.34355(17)
H12_4 H 0.020132 0.909289 0.240751
O10_4 O 0.06607(17) 0.50718(17) 0.19567(17)
C21_4 C 0.03076(16) 0.52605(17) 0.15645(17)
H15_4 H 0.020132 0.590711 0.259249
O12_4 O 0.93393(17) 0.00718(17) 0.69567(17)
C27_4 C 0.96924(16) 0.02605(17) 0.65645(17)
H18_4 H 0.979868 0.090711 0.759249
O14_4 O 0.93393(17) 0.49282(17) 0.80433(17)
C33_4 C 0.96924(16) 0.47395(17) 0.84355(17)
H21_4 H 0.979868 0.409289 0.740751
S3_4 S 0.86521(4) 0.76145(4) 0.29474(4)
N3_4 N 0.91384(14) 0.84790(13) 0.35743(13)
C13_4 C 0.91667(15) 0.82428(15) 0.30110(16)
C14_4 C 0.99126(15) 0.91964(15) 0.32835(15)
C16_4 C 0.95520(16) 0.84552(15) 0.25631(16)
H11_4 H 0.955734 0.827597 0.217060
C17_4 C 0.99298(16) 0.89376(16) 0.27047(16)
C18_4 C 0.95109(17) 0.89495(16) 0.37009(16)
H13_4 H 0.949705 0.912040 0.409683
S4_4 S 0.86521(4) 0.73855(4) 0.20526(4)
N4_4 N 0.91384(14) 0.65210(13) 0.14257(13)
C19_4 C 0.91667(15) 0.67572(15) 0.19890(16)
C20_4 C 0.99126(15) 0.58036(15) 0.17165(15)
C22_4 C 0.95520(16) 0.65448(15) 0.24369(16)
H14_4 H 0.955734 0.672403 0.282940
C23_4 C 0.99298(16) 0.60624(16) 0.22953(16)
C24_4 C 0.95109(17) 0.60505(16) 0.12991(16)
H16_4 H 0.949705 0.587960 0.090317
S3_5 S 0.29474(4) 0.63479(4) 0.73855(4)
N3_5 N 0.35743(13) 0.58616(14) 0.65210(13)
O8_5 O 0.30433(17) 0.43393(17) 0.50718(17)
C13_5 C 0.30110(16) 0.58333(15) 0.67572(15)
C14_5 C 0.32835(15) 0.50874(15) 0.58036(15)
C15_5 C 0.34355(17) 0.46924(16) 0.52605(17)
C16_5 C 0.25631(16) 0.54480(16) 0.65448(15)
H11_5 H 0.217060 0.544266 0.672403
C17_5 C 0.27047(16) 0.50702(16) 0.60624(16)
H12_5 H 0.240751 0.479868 0.590711
C18_5 C 0.37009(16) 0.54891(17) 0.60505(16)
H13_5 H 0.409683 0.550295 0.587960
S4_5 S 0.20526(4) 0.63479(4) 0.76145(4)
N4_5 N 0.14257(13) 0.58616(14) 0.84790(13)
O10_5 O 0.19567(17) 0.43393(17) 0.99282(17)
C19_5 C 0.19890(16) 0.58333(15) 0.82428(15)
C20_5 C 0.17165(15) 0.50874(15) 0.91964(15)
C21_5 C 0.15645(17) 0.46924(16) 0.97395(17)
C22_5 C 0.24369(16) 0.54480(16) 0.84552(15)
H14_5 H 0.282940 0.544266 0.827597
C23_5 C 0.22953(16) 0.50702(16) 0.89376(16)
H15_5 H 0.259249 0.479868 0.909289
C24_5 C 0.12991(16) 0.54891(17) 0.89495(16)
H16_5 H 0.090317 0.550295 0.912040
O8_6 O 0.30433(17) 0.06607(17) 0.99282(17)
C15_6 C 0.34355(17) 0.03076(16) 0.97395(17)
H12_6 H 0.240751 0.020132 0.909289
O10_6 O 0.19567(17) 0.06607(17) 0.50718(17)
C21_6 C 0.15645(17) 0.03076(16) 0.52605(17)
H15_6 H 0.259249 0.020132 0.590711
S3_6 S 0.29474(4) 0.86521(4) 0.76145(4)
N3_6 N 0.35743(13) 0.91384(14) 0.84790(13)
C13_6 C 0.30110(16) 0.91667(15) 0.82428(15)
C14_6 C 0.32835(15) 0.99126(15) 0.91964(15)
C16_6 C 0.25631(16) 0.95520(16) 0.84552(15)
H11_6 H 0.217060 0.955734 0.827597
C17_6 C 0.27047(16) 0.99298(16) 0.89376(16)
C18_6 C 0.37009(16) 0.95109(17) 0.89495(16)
H13_6 H 0.409683 0.949705 0.912040
S4_6 S 0.20526(4) 0.86521(4) 0.73855(4)
N4_6 N 0.14257(13) 0.91384(14) 0.65210(13)
C19_6 C 0.19890(16) 0.91667(15) 0.67572(15)
C20_6 C 0.17165(15) 0.99126(15) 0.58036(15)
C22_6 C 0.24369(16) 0.95520(16) 0.65448(15)
H14_6 H 0.282940 0.955734 0.672403
C23_6 C 0.22953(16) 0.99298(16) 0.60624(16)
C24_6 C 0.12991(16) 0.95109(17) 0.60505(16)
H16_6 H 0.090317 0.949705 0.587960
Na2 Na 0.000000 0.000000 0.000000
Na2_2 Na 0.000000 0.000000 1.000000
Na2_3 Na 0.000000 1.000000 0.000000
Na2_4 Na 0.000000 1.000000 1.000000
In5_3 In 0.08283(2) 0.08283(2) 0.08283(2)
Na4_9 Na 0.500000 0.000000 0.500000
S1_3 S 0.36521(4) 0.70526(4) 0.23855(4)
Na1_2 Na 0.500000 0.500000 0.000000
O1_3 O 0.52468(12) 0.60442(11) 0.00291(11)
N1_3 N 0.41384(14) 0.64257(13) 0.15210(13)
O3_3 O 0.56607(17) 0.69567(17) 0.00718(17)
C1_3 C 0.41667(15) 0.69890(16) 0.17572(15)
C2_3 C 0.49126(15) 0.67165(15) 0.08036(15)
C3_3 C 0.53076(16) 0.65645(17) 0.02605(17)
C4_3 C 0.45520(16) 0.74369(16) 0.15448(15)
H3_3 H 0.455734 0.782940 0.172403
C5_3 C 0.49298(16) 0.72953(16) 0.10624(16)
H4_3 H 0.520132 0.759249 0.090711
C6_3 C 0.45109(17) 0.62991(16) 0.10505(16)
H5_3 H 0.449705 0.590317 0.087960
S2_3 S 0.36521(4) 0.79474(4) 0.26145(4)
O4_3 O 0.52468(12) 0.89558(11) 0.49709(11)
N2_3 N 0.41384(14) 0.85743(13) 0.34790(13)
O5_3 O 0.56607(17) 0.80433(17) 0.49282(17)
C7_3 C 0.41667(15) 0.80110(16) 0.32428(15)
C8_3 C 0.49126(15) 0.82835(15) 0.41964(15)
C9_3 C 0.53076(16) 0.84355(17) 0.47395(17)
C10_3 C 0.45520(16) 0.75631(16) 0.34552(15)
H6_3 H 0.455734 0.717060 0.327597
C11_3 C 0.49298(16) 0.77047(16) 0.39376(16)
H7_3 H 0.520132 0.740751 0.409289
C12_3 C 0.45109(17) 0.87009(16) 0.39495(16)
H8_3 H 0.449705 0.909683 0.412040
In2_3 In 0.41717(2) 0.41717(2) 0.08283(2)
O6_3 O 0.39558(11) 0.50291(11) 0.02468(12)
O7_5 O 0.38204(15) 0.44040(19) 0.17863(14)
O8_7 O 0.30433(17) 0.50718(17) 0.06607(17)
C15_7 C 0.34355(17) 0.52605(17) 0.03076(16)
H12_7 H 0.240751 0.590711 0.020132
O9_3 O 0.10442(11) 0.99709(11) 0.02468(12)
O10_7 O 0.19567(17) 0.99282(17) 0.06607(17)
C21_7 C 0.15645(17) 0.97395(17) 0.03076(16)
H15_7 H 0.259249 0.909289 0.020132
S5_5 S 0.70526(4) 0.26145(4) 0.13479(4)
N5_5 N 0.64257(13) 0.34790(13) 0.08616(14)
C25_5 C 0.69890(16) 0.32428(15) 0.08333(15)
C26_5 C 0.67165(15) 0.41964(15) 0.00874(15)
C28_5 C 0.74369(16) 0.34552(15) 0.04480(16)
H17_5 H 0.782940 0.327597 0.044266
C29_5 C 0.72953(16) 0.39376(16) 0.00702(16)
C30_5 C 0.62991(16) 0.39495(16) 0.04891(17)
H19_5 H 0.590317 0.412040 0.050295
S6_5 S 0.79474(4) 0.23855(4) 0.13479(4)
N6_5 N 0.85743(13) 0.15210(13) 0.08616(14)
C31_5 C 0.80110(16) 0.17572(15) 0.08333(15)
C32_5 C 0.82835(15) 0.08036(15) 0.00874(15)
C34_5 C 0.75631(16) 0.15448(15) 0.04480(16)
H20_5 H 0.717060 0.172403 0.044266
C35_5 C 0.77047(16) 0.10624(16) 0.00702(16)
C36_5 C 0.87009(16) 0.10505(16) 0.04891(17)
H22_5 H 0.909683 0.087960 0.050295
O17_5 O 0.44040(19) 0.32137(14) 0.11796(15)
O18_5 O 0.32137(14) 0.38204(15) 0.05960(19)
In4_3 In 0.58283(2) 0.91717(2) 0.58283(2)
Na2_5 Na 1.000000 0.000000 0.000000
Na4_10 Na 0.500000 1.000000 0.500000
O21_5 O 0.50291(11) 0.47532(12) 0.10442(11)
In1_2 In 0.58283(2) 0.58283(2) 0.91717(2)
Na1_3 Na 0.500000 0.500000 1.000000
O2_5 O 0.67863(14) 0.61796(15) 0.94040(19)
S3_7 S 0.29474(4) 0.73855(4) 0.86521(4)
N3_7 N 0.35743(13) 0.65210(13) 0.91384(14)
C13_7 C 0.30110(16) 0.67572(15) 0.91667(15)
C14_7 C 0.32835(15) 0.58036(15) 0.99126(15)
C16_7 C 0.25631(16) 0.65448(15) 0.95520(16)
H11_7 H 0.217060 0.672403 0.955734
C17_7 C 0.27047(16) 0.60624(16) 0.99298(16)
C18_7 C 0.37009(16) 0.60505(16) 0.95109(17)
H13_7 H 0.409683 0.587960 0.949705
S4_7 S 0.20526(4) 0.76145(4) 0.86521(4)
N4_7 N 0.14257(13) 0.84790(13) 0.91384(14)
C19_7 C 0.19890(16) 0.82428(15) 0.91667(15)
C20_7 C 0.17165(15) 0.91964(15) 0.99126(15)
C22_7 C 0.24369(16) 0.84552(15) 0.95520(16)
H14_7 H 0.282940 0.827597 0.955734
C23_7 C 0.22953(16) 0.89376(16) 0.99298(16)
C24_7 C 0.12991(16) 0.89495(16) 0.95109(17)
H16_7 H 0.090317 0.912040 0.949705
O11_3 O 0.60442(11) 0.49709(11) 0.97532(12)
O12_5 O 0.69567(17) 0.49282(17) 0.93393(17)
C27_5 C 0.65645(17) 0.47395(17) 0.96924(16)
H18_5 H 0.759249 0.409289 0.979868
O13_3 O 0.89558(11) 0.00291(11) 0.97532(12)
O14_5 O 0.80433(17) 0.00718(17) 0.93393(17)
C33_5 C 0.84355(17) 0.02605(17) 0.96924(16)
H21_5 H 0.740751 0.090711 0.979868
O15_5 O 0.61796(15) 0.55960(19) 0.82137(14)
O16_5 O 0.55960(19) 0.67863(14) 0.88204(15)
Na2_6 Na 1.000000 0.000000 1.000000
O19_5 O 0.49709(11) 0.52468(12) 0.89558(11)
O20_5 O 0.47532(12) 0.39558(11) 0.99709(11)
Na2_7 Na 1.000000 1.000000 0.000000
In3_2 In 0.91717(2) 0.91717(2) 0.91717(2)
Na2_8 Na 1.000000 1.000000 1.000000
O7_6 O 0.11796(15) 0.05960(19) 0.17863(14)
O17_6 O 0.05960(19) 0.17863(14) 0.11796(15)
O18_6 O 0.17863(14) 0.11796(15) 0.05960(19)
O20_6 O 0.02468(12) 0.10442(11) 0.99709(11)
S1_4 S 0.13479(4) 0.79474(4) 0.23855(4)
N1_4 N 0.08616(14) 0.85743(13) 0.15210(13)
C1_4 C 0.08333(15) 0.80110(16) 0.17572(15)
C2_4 C 0.00874(15) 0.82835(15) 0.08036(15)
C4_4 C 0.04480(16) 0.75631(16) 0.15448(15)
H3_4 H 0.044266 0.717060 0.172403
C5_4 C 0.00702(16) 0.77047(16) 0.10624(16)
C6_4 C 0.04891(17) 0.87009(16) 0.10505(16)
H5_4 H 0.050295 0.909683 0.087960
S2_4 S 0.13479(4) 0.70526(4) 0.26145(4)
N2_4 N 0.08616(14) 0.64257(13) 0.34790(13)
C7_4 C 0.08333(15) 0.69890(16) 0.32428(15)
C8_4 C 0.00874(15) 0.67165(15) 0.41964(15)
C10_4 C 0.04480(16) 0.74369(16) 0.34552(15)
H6_4 H 0.044266 0.782940 0.327597
C11_4 C 0.00702(16) 0.72953(16) 0.39376(16)
C12_4 C 0.04891(17) 0.62991(16) 0.39495(16)
H8_4 H 0.050295 0.590317 0.412040
Na4_11 Na 0.000000 0.500000 0.500000
O19_6 O 0.00291(11) 0.97532(12) 0.89558(11)
O21_6 O 0.99709(11) 0.02468(12) 0.10442(11)
O1_4 O 0.97532(12) 0.89558(11) 0.00291(11)
O3_4 O 0.93393(17) 0.80433(17) 0.00718(17)
C3_4 C 0.96924(16) 0.84355(17) 0.02605(17)
H4_4 H 0.979868 0.740751 0.090711
O4_4 O 0.97532(12) 0.60442(11) 0.49709(11)
O5_4 O 0.93393(17) 0.69567(17) 0.49282(17)
C9_4 C 0.96924(16) 0.65645(17) 0.47395(17)
H7_4 H 0.979868 0.759249 0.409289
In4_4 In 0.91717(2) 0.58283(2) 0.58283(2)
Na4_12 Na 1.000000 0.500000 0.500000
O2_6 O 0.82137(14) 0.88204(15) 0.94040(19)
O15_6 O 0.88204(15) 0.94040(19) 0.82137(14)
O16_6 O 0.94040(19) 0.82137(14) 0.88204(15)
In2_4 In 0.41717(2) 0.08283(2) 0.41717(2)
O7_7 O 0.38204(15) 0.05960(19) 0.32137(14)
S5_6 S 0.70526(4) 0.23855(4) 0.36521(4)
O11_4 O 0.60442(11) 0.00291(11) 0.52468(12)
N5_6 N 0.64257(13) 0.15210(13) 0.41384(14)
O12_6 O 0.69567(17) 0.00718(17) 0.56607(17)
C25_6 C 0.69890(16) 0.17572(15) 0.41667(15)
C26_6 C 0.67165(15) 0.08036(15) 0.49126(15)
C27_6 C 0.65645(17) 0.02605(17) 0.53076(16)
C28_6 C 0.74369(16) 0.15448(15) 0.45520(16)
H17_6 H 0.782940 0.172403 0.455734
C29_6 C 0.72953(16) 0.10624(16) 0.49298(16)
H18_6 H 0.759249 0.090711 0.520132
C30_6 C 0.62991(16) 0.10505(16) 0.45109(17)
H19_6 H 0.590317 0.087960 0.449705
S6_6 S 0.79474(4) 0.26145(4) 0.36521(4)
O13_4 O 0.89558(11) 0.49709(11) 0.52468(12)
N6_6 N 0.85743(13) 0.34790(13) 0.41384(14)
O14_6 O 0.80433(17) 0.49282(17) 0.56607(17)
C31_6 C 0.80110(16) 0.32428(15) 0.41667(15)
C32_6 C 0.82835(15) 0.41964(15) 0.49126(15)
C33_6 C 0.84355(17) 0.47395(17) 0.53076(16)
C34_6 C 0.75631(16) 0.34552(15) 0.45520(16)
H20_6 H 0.717060 0.327597 0.455734
C35_6 C 0.77047(16) 0.39376(16) 0.49298(16)
H21_6 H 0.740751 0.409289 0.520132
C36_6 C 0.87009(16) 0.39495(16) 0.45109(17)
H22_6 H 0.909683 0.412040 0.449705
O17_7 O 0.44040(19) 0.17863(14) 0.38204(15)
O18_7 O 0.32137(14) 0.11796(15) 0.44040(19)
O20_7 O 0.47532(12) 0.10442(11) 0.50291(11)
O21_7 O 0.50291(11) 0.02468(12) 0.39558(11)
O2_7 O 0.67863(14) 0.88204(15) 0.55960(19)
S3_8 S 0.29474(4) 0.76145(4) 0.63479(4)
O6_4 O 0.39558(11) 0.99709(11) 0.47532(12)
N3_8 N 0.35743(13) 0.84790(13) 0.58616(14)
O8_8 O 0.30433(17) 0.99282(17) 0.43393(17)
C13_8 C 0.30110(16) 0.82428(15) 0.58333(15)
C14_8 C 0.32835(15) 0.91964(15) 0.50874(15)
C15_8 C 0.34355(17) 0.97395(17) 0.46924(16)
C16_8 C 0.25631(16) 0.84552(15) 0.54480(16)
H11_8 H 0.217060 0.827597 0.544266
C17_8 C 0.27047(16) 0.89376(16) 0.50702(16)
H12_8 H 0.240751 0.909289 0.479868
C18_8 C 0.37009(16) 0.89495(16) 0.54891(17)
H13_8 H 0.409683 0.912040 0.550295
S4_8 S 0.20526(4) 0.73855(4) 0.63479(4)
O9_4 O 0.10442(11) 0.50291(11) 0.47532(12)
N4_8 N 0.14257(13) 0.65210(13) 0.58616(14)
O10_8 O 0.19567(17) 0.50718(17) 0.43393(17)
C19_8 C 0.19890(16) 0.67572(15) 0.58333(15)
C20_8 C 0.17165(15) 0.58036(15) 0.50874(15)
C21_8 C 0.15645(17) 0.52605(17) 0.46924(16)
C22_8 C 0.24369(16) 0.65448(15) 0.54480(16)
H14_8 H 0.282940 0.672403 0.544266
C23_8 C 0.22953(16) 0.60624(16) 0.50702(16)
H15_8 H 0.259249 0.590711 0.479868
C24_8 C 0.12991(16) 0.60505(16) 0.54891(17)
H16_8 H 0.090317 0.587960 0.550295
O15_7 O 0.61796(15) 0.94040(19) 0.67863(14)
O16_7 O 0.55960(19) 0.82137(14) 0.61796(15)
In5_4 In 0.08283(2) 0.41717(2) 0.41717(2)
O19_7 O 0.49709(11) 0.97532(12) 0.60442(11)
O7_8 O 0.11796(15) 0.44040(19) 0.32137(14)
O17_8 O 0.05960(19) 0.32137(14) 0.38204(15)
O18_8 O 0.17863(14) 0.38204(15) 0.44040(19)
O19_8 O 0.00291(11) 0.52468(12) 0.60442(11)
O20_8 O 0.02468(12) 0.39558(11) 0.50291(11)
O2_8 O 0.82137(14) 0.61796(15) 0.55960(19)
O15_8 O 0.88204(15) 0.55960(19) 0.67863(14)
O16_8 O 0.94040(19) 0.67863(14) 0.61796(15)
O21_8 O 0.99709(11) 0.47532(12) 0.39558(11)
S3_9 S 0.73855(4) 0.63479(4) 0.20526(4)
N3_9 N 0.65210(13) 0.58616(14) 0.14257(13)
O8_9 O 0.50718(17) 0.43393(17) 0.19567(17)
C13_9 C 0.67572(15) 0.58333(15) 0.19890(16)
C14_9 C 0.58036(15) 0.50874(15) 0.17165(15)
C15_9 C 0.52605(17) 0.46924(16) 0.15645(17)
C16_9 C 0.65448(15) 0.54480(16) 0.24369(16)
H11_9 H 0.672403 0.544266 0.282940
C17_9 C 0.60624(16) 0.50702(16) 0.22953(16)
H12_9 H 0.590711 0.479868 0.259249
C18_9 C 0.60505(16) 0.54891(17) 0.12991(16)
H13_9 H 0.587960 0.550295 0.090317
S4_9 S 0.76145(4) 0.63479(4) 0.29474(4)
N4_9 N 0.84790(13) 0.58616(14) 0.35743(13)
O10_9 O 0.99282(17) 0.43393(17) 0.30433(17)
C19_9 C 0.82428(15) 0.58333(15) 0.30110(16)
C20_9 C 0.91964(15) 0.50874(15) 0.32835(15)
C21_9 C 0.97395(17) 0.46924(16) 0.34355(17)
C22_9 C 0.84552(15) 0.54480(16) 0.25631(16)
H14_9 H 0.827597 0.544266 0.217060
C23_9 C 0.89376(16) 0.50702(16) 0.27047(16)
H15_9 H 0.909289 0.479868 0.240751
C24_9 C 0.89495(16) 0.54891(17) 0.37009(16)
H16_9 H 0.912040 0.550295 0.409683
S5_7 S 0.26145(4) 0.36521(4) 0.79474(4)
N5_7 N 0.34790(13) 0.41384(14) 0.85743(13)
O12_7 O 0.49282(17) 0.56607(17) 0.80433(17)
C25_7 C 0.32428(15) 0.41667(15) 0.80110(16)
C26_7 C 0.41964(15) 0.49126(15) 0.82835(15)
C27_7 C 0.47395(17) 0.53076(16) 0.84355(17)
C28_7 C 0.34552(15) 0.45520(16) 0.75631(16)
H17_7 H 0.327597 0.455734 0.717060
C29_7 C 0.39376(16) 0.49298(16) 0.77047(16)
H18_7 H 0.409289 0.520132 0.740751
C30_7 C 0.39495(16) 0.45109(17) 0.87009(16)
H19_7 H 0.412040 0.449705 0.909683
S6_7 S 0.23855(4) 0.36521(4) 0.70526(4)
N6_7 N 0.15210(13) 0.41384(14) 0.64257(13)
O14_7 O 0.00718(17) 0.56607(17) 0.69567(17)
C31_7 C 0.17572(15) 0.41667(15) 0.69890(16)
C32_7 C 0.08036(15) 0.49126(15) 0.67165(15)
C33_7 C 0.02605(17) 0.53076(16) 0.65645(17)
C34_7 C 0.15448(15) 0.45520(16) 0.74369(16)
H20_7 H 0.172403 0.455734 0.782940
C35_7 C 0.10624(16) 0.49298(16) 0.72953(16)
H21_7 H 0.090711 0.520132 0.759249
C36_7 C 0.10505(16) 0.45109(17) 0.62991(16)
H22_7 H 0.087960 0.449705 0.590317
S5_8 S 0.23855(4) 0.13479(4) 0.79474(4)
N5_8 N 0.15210(13) 0.08616(14) 0.85743(13)
C25_8 C 0.17572(15) 0.08333(15) 0.80110(16)
C26_8 C 0.08036(15) 0.00874(15) 0.82835(15)
C28_8 C 0.15448(15) 0.04480(16) 0.75631(16)
H17_8 H 0.172403 0.044266 0.717060
C29_8 C 0.10624(16) 0.00702(16) 0.77047(16)
C30_8 C 0.10505(16) 0.04891(17) 0.87009(16)
H19_8 H 0.087960 0.050295 0.909683
S6_8 S 0.26145(4) 0.13479(4) 0.70526(4)
N6_8 N 0.34790(13) 0.08616(14) 0.64257(13)
C31_8 C 0.32428(15) 0.08333(15) 0.69890(16)
C32_8 C 0.41964(15) 0.00874(15) 0.67165(15)
C34_8 C 0.34552(15) 0.04480(16) 0.74369(16)
H20_8 H 0.327597 0.044266 0.782940
C35_8 C 0.39376(16) 0.00702(16) 0.72953(16)
C36_8 C 0.39495(16) 0.04891(17) 0.62991(16)
H22_8 H 0.412040 0.050295 0.590317
O12_8 O 0.00718(17) 0.93393(17) 0.80433(17)
C27_8 C 0.02605(17) 0.96924(16) 0.84355(17)
H18_8 H 0.090711 0.979868 0.740751
O14_8 O 0.49282(17) 0.93393(17) 0.69567(17)
C33_8 C 0.47395(17) 0.96924(16) 0.65645(17)
H21_8 H 0.409289 0.979868 0.759249
O8_10 O 0.99282(17) 0.06607(17) 0.19567(17)
C15_10 C 0.97395(17) 0.03076(16) 0.15645(17)
H12_10 H 0.909289 0.020132 0.259249
O10_10 O 0.50718(17) 0.06607(17) 0.30433(17)
C21_10 C 0.52605(17) 0.03076(16) 0.34355(17)
H15_10 H 0.590711 0.020132 0.240751
S3_10 S 0.76145(4) 0.86521(4) 0.20526(4)
N3_10 N 0.84790(13) 0.91384(14) 0.14257(13)
C13_10 C 0.82428(15) 0.91667(15) 0.19890(16)
C14_10 C 0.91964(15) 0.99126(15) 0.17165(15)
C16_10 C 0.84552(15) 0.95520(16) 0.24369(16)
H11_10 H 0.827597 0.955734 0.282940
C17_10 C 0.89376(16) 0.99298(16) 0.22953(16)
C18_10 C 0.89495(16) 0.95109(17) 0.12991(16)
H13_10 H 0.912040 0.949705 0.090317
S4_10 S 0.73855(4) 0.86521(4) 0.29474(4)
N4_10 N 0.65210(13) 0.91384(14) 0.35743(13)
C19_10 C 0.67572(15) 0.91667(15) 0.30110(16)
C20_10 C 0.58036(15) 0.99126(15) 0.32835(15)
C22_10 C 0.65448(15) 0.95520(16) 0.25631(16)
H14_10 H 0.672403 0.955734 0.217060
C23_10 C 0.60624(16) 0.99298(16) 0.27047(16)
C24_10 C 0.60505(16) 0.95109(17) 0.37009(16)
H16_10 H 0.587960 0.949705 0.409683
S3_11 S 0.63479(4) 0.29474(4) 0.76145(4)
N3_11 N 0.58616(14) 0.35743(13) 0.84790(13)
O8_11 O 0.43393(17) 0.30433(17) 0.99282(17)
C13_11 C 0.58333(15) 0.30110(16) 0.82428(15)
C14_11 C 0.50874(15) 0.32835(15) 0.91964(15)
C15_11 C 0.46924(16) 0.34355(17) 0.97395(17)
C16_11 C 0.54480(16) 0.25631(16) 0.84552(15)
H11_11 H 0.544266 0.217060 0.827597
C17_11 C 0.50702(16) 0.27047(16) 0.89376(16)
H12_11 H 0.479868 0.240751 0.909289
C18_11 C 0.54891(17) 0.37009(16) 0.89495(16)
H13_11 H 0.550295 0.409683 0.912040
S4_11 S 0.63479(4) 0.20526(4) 0.73855(4)
N4_11 N 0.58616(14) 0.14257(13) 0.65210(13)
O10_11 O 0.43393(17) 0.19567(17) 0.50718(17)
C19_11 C 0.58333(15) 0.19890(16) 0.67572(15)
C20_11 C 0.50874(15) 0.17165(15) 0.58036(15)
C21_11 C 0.46924(16) 0.15645(17) 0.52605(17)
C22_11 C 0.54480(16) 0.24369(16) 0.65448(15)
H14_11 H 0.544266 0.282940 0.672403
C23_11 C 0.50702(16) 0.22953(16) 0.60624(16)
H15_11 H 0.479868 0.259249 0.590711
C24_11 C 0.54891(17) 0.12991(16) 0.60505(16)
H16_11 H 0.550295 0.090317 0.587960
O8_12 O 0.06607(17) 0.30433(17) 0.50718(17)
C15_12 C 0.03076(16) 0.34355(17) 0.52605(17)
H12_12 H 0.020132 0.240751 0.590711
O10_12 O 0.06607(17) 0.19567(17) 0.99282(17)
C21_12 C 0.03076(16) 0.15645(17) 0.97395(17)
H15_12 H 0.020132 0.259249 0.909289
S3_12 S 0.86521(4) 0.29474(4) 0.73855(4)
N3_12 N 0.91384(14) 0.35743(13) 0.65210(13)
C13_12 C 0.91667(15) 0.30110(16) 0.67572(15)
C14_12 C 0.99126(15) 0.32835(15) 0.58036(15)
C16_12 C 0.95520(16) 0.25631(16) 0.65448(15)
H11_12 H 0.955734 0.217060 0.672403
C17_12 C 0.99298(16) 0.27047(16) 0.60624(16)
C18_12 C 0.95109(17) 0.37009(16) 0.60505(16)
H13_12 H 0.949705 0.409683 0.587960
S4_12 S 0.86521(4) 0.20526(4) 0.76145(4)
N4_12 N 0.91384(14) 0.14257(13) 0.84790(13)
C19_12 C 0.91667(15) 0.19890(16) 0.82428(15)
C20_12 C 0.99126(15) 0.17165(15) 0.91964(15)
C22_12 C 0.95520(16) 0.24369(16) 0.84552(15)
H14_12 H 0.955734 0.282940 0.827597
C23_12 C 0.99298(16) 0.22953(16) 0.89376(16)
C24_12 C 0.95109(17) 0.12991(16) 0.89495(16)
H16_12 H 0.949705 0.090317 0.912040
loop_
_geom_bond_atom_site_label_1
_geom_bond_atom_site_label_2
_geom_bond_site_symmetry_1
_geom_bond_site_symmetry_2
In1 O1 1_555 1_555
S1 C1 1_555 1_555
Na1 O1 1_555 1_555
O1 C3 1_555 1_555
N1 C1 1_555 1_555
O2 In1 1_555 1_555
O3 C3 1_555 1_555
C1 C4 1_555 1_555
C2 C3 1_555 1_555
C4 H3 1_555 1_555
C5 C2 1_555 1_555
H4 C5 1_555 1_555
C6 N1 1_555 1_555
H5 C6 1_555 1_555
S2 S1 1_555 1_555
O4 C9 1_555 1_555
N2 C7 1_555 1_555
O5 C9 1_555 1_555
C7 S2 1_555 1_555
C8 C9 1_555 1_555
C10 C7 1_555 1_555
H6 C10 1_555 1_555
C11 C8 1_555 1_555
H7 C11 1_555 1_555
C12 N2 1_555 1_555
H8 C12 1_555 1_555
In2 O6 1_555 1_555
S3 C13 1_555 1_555
O6 Na1 1_555 1_555
N3 C13 1_555 1_555
O7 In2 1_555 1_555
O8 C15 1_555 1_555
C13 C16 1_555 1_555
C14 C15 1_555 1_555
C15 O6 1_555 1_555
C16 H11 1_555 1_555
C17 C14 1_555 1_555
H12 C17 1_555 1_555
C18 N3 1_555 1_555
H13 C18 1_555 1_555
S4 S3 1_555 1_555
O9 C21 1_555 1_555
N4 C19 1_555 1_555
O10 C21 1_555 1_555
C19 S4 1_555 1_555
C20 C21 1_555 1_555
C22 C19 1_555 1_555
H14 C22 1_555 1_555
C23 C20 1_555 1_555
H15 C23 1_555 1_555
C24 N4 1_555 1_555
H16 C24 1_555 1_555
S5 C25 1_555 1_555
O11 In1 1_555 1_555
N5 C25 1_555 1_555
O12 C27 1_555 1_555
C25 C28 1_555 1_555
C26 C27 1_555 1_555
C27 O11 1_555 1_555
C28 H17 1_555 1_555
C29 C26 1_555 1_555
H18 C29 1_555 1_555
C30 N5 1_555 1_555
H19 C30 1_555 1_555
S6 S5 1_555 1_555
O13 C33 1_555 1_555
N6 C31 1_555 1_555
O14 C33 1_555 1_555
C31 S6 1_555 1_555
C32 C33 1_555 1_555
C34 C31 1_555 1_555
H20 C34 1_555 1_555
C35 C32 1_555 1_555
H21 C35 1_555 1_555
C36 N6 1_555 1_555
H22 C36 1_555 1_555
O15 In1 1_555 1_555
O16 In1 1_555 1_555
O17 In2 1_555 1_555
O18 In2 1_555 1_555
Na3_2 O13 1_555 1_555
Na3_3 O9 1_555 1_555
Na4_3 O4 1_555 1_555
O19 In1 1_555 1_555
O20 Na1 1_555 1_555
O21 Na1 1_555 1_555
Na1 O11 1_555 1_555
Na1 O19 1_555 1_555
C2 C6 1_555 1_555
C4 C5 1_555 1_555
C8 C12 1_555 1_555
C10 C11 1_555 1_555
In2 O20 1_555 1_555
In2 O21 1_555 1_555
C14 C18 1_555 1_555
C16 C17 1_555 1_555
C20 C24 1_555 1_555
C22 C23 1_555 1_555
C26 C30 1_555 1_555
C28 C29 1_555 1_555
C32 C36 1_555 1_555
C34 C35 1_555 1_555
O7_2 In5 1_555 1_555
O17_2 In5 1_555 1_555
O18_2 In5 1_555 1_555
O20_2 Na3 1_555 1_555
In5 O20_2 1_555 1_555
O21_2 Na3_2 1_555 1_555
S1_2 C1_2 1_555 1_555
N1_2 C1_2 1_555 1_555
C1_2 C4_2 1_555 1_555
C4_2 H3_2 1_555 1_555
C5_2 C2_2 1_555 1_555
C6_2 N1_2 1_555 1_555
H5_2 C6_2 1_555 1_555
S2_2 S1_2 1_555 1_555
N2_2 C7_2 1_555 1_555
C7_2 S2_2 1_555 1_555
C10_2 C7_2 1_555 1_555
H6_2 C10_2 1_555 1_555
C11_2 C8_2 1_555 1_555
C12_2 N2_2 1_555 1_555
H8_2 C12_2 1_555 1_555
Na3_3 O19_2 1_555 1_555
C2_2 C6_2 1_555 1_555
C4_2 C5_2 1_555 1_555
C8_2 C12_2 1_555 1_555
C10_2 C11_2 1_555 1_555
In3 O1_2 1_555 1_555
Na3_4 O1_2 1_555 1_555
O1_2 C3_2 1_555 1_555
O2_2 In3 1_555 1_555
O3_2 C3_2 1_555 1_555
O4_2 C9_2 1_555 1_555
O5_2 C9_2 1_555 1_555
O15_2 In3 1_555 1_555
O16_2 In3 1_555 1_555
Na4_7 O4_2 1_555 1_555
O7_3 In2_2 1_555 1_555
S5_2 C25_2 1_555 1_555
N5_2 C25_2 1_555 1_555
C25_2 C28_2 1_555 1_555
C28_2 H17_2 1_555 1_555
C29_2 C26_2 1_555 1_555
C30_2 N5_2 1_555 1_555
H19_2 C30_2 1_555 1_555
S6_2 S5_2 1_555 1_555
N6_2 C31_2 1_555 1_555
C31_2 S6_2 1_555 1_555
C34_2 C31_2 1_555 1_555
H20_2 C34_2 1_555 1_555
C35_2 C32_2 1_555 1_555
C36_2 N6_2 1_555 1_555
H22_2 C36_2 1_555 1_555
O17_3 In2_2 1_555 1_555
O18_3 In2_2 1_555 1_555
O21_3 Na4 1_555 1_555
In2_2 O21_3 1_555 1_555
C26_2 C30_2 1_555 1_555
C28_2 C29_2 1_555 1_555
C32_2 C36_2 1_555 1_555
C34_2 C35_2 1_555 1_555
O12_2 C27_2 1_555 1_555
C27_2 O11_2 1_555 1_555
O13_2 C33_2 1_555 1_555
O14_2 C33_2 1_555 1_555
In4_2 O13_2 1_555 1_555
Na4_8 O13_2 1_555 1_555
O20_3 Na4_2 1_555 1_555
Na4_2 O11_2 1_555 1_555
O6_2 Na4_3 1_555 1_555
O8_2 C15_2 1_555 1_555
C15_2 O6_2 1_555 1_555
O9_2 C21_2 1_555 1_555
O10_2 C21_2 1_555 1_555
In5_2 O9_2 1_555 1_555
Na4_5 O9_2 1_555 1_555
O2_3 In4 1_555 1_555
S3_2 C13_2 1_555 1_555
N3_2 C13_2 1_555 1_555
C13_2 C16_2 1_555 1_555
C16_2 H11_2 1_555 1_555
C17_2 C14_2 1_555 1_555
C18_2 N3_2 1_555 1_555
H13_2 C18_2 1_555 1_555
S4_2 S3_2 1_555 1_555
N4_2 C19_2 1_555 1_555
C19_2 S4_2 1_555 1_555
C22_2 C19_2 1_555 1_555
H14_2 C22_2 1_555 1_555
C23_2 C20_2 1_555 1_555
C24_2 N4_2 1_555 1_555
H16_2 C24_2 1_555 1_555
O15_3 In4 1_555 1_555
O16_3 In4 1_555 1_555
O19_3 In4 1_555 1_555
Na4_4 O19_3 1_555 1_555
C14_2 C18_2 1_555 1_555
C16_2 C17_2 1_555 1_555
C20_2 C24_2 1_555 1_555
C22_2 C23_2 1_555 1_555
O7_4 In5_2 1_555 1_555
O17_4 In5_2 1_555 1_555
O18_4 In5_2 1_555 1_555
O20_4 Na4_6 1_555 1_555
Na4_6 O19_4 1_555 1_555
O21_4 Na4_7 1_555 1_555
O2_4 In4_2 1_555 1_555
O15_4 In4_2 1_555 1_555
O16_4 In4_2 1_555 1_555
S3_3 C13_3 1_555 1_555
N3_3 C13_3 1_555 1_555
O8_3 C15_3 1_555 1_555
C13_3 C16_3 1_555 1_555
C14_3 C15_3 1_555 1_555
C15_3 O21 1_555 1_555
C16_3 H11_3 1_555 1_555
C17_3 C14_3 1_555 1_555
H12_3 C17_3 1_555 1_555
C18_3 N3_3 1_555 1_555
H13_3 C18_3 1_555 1_555
S4_3 S3_3 1_555 1_555
O21_4 C21_3 1_555 1_555
N4_3 C19_3 1_555 1_555
O10_3 C21_3 1_555 1_555
C19_3 S4_3 1_555 1_555
C20_3 C21_3 1_555 1_555
C22_3 C19_3 1_555 1_555
H14_3 C22_3 1_555 1_555
C23_3 C20_3 1_555 1_555
H15_3 C23_3 1_555 1_555
C24_3 N4_3 1_555 1_555
H16_3 C24_3 1_555 1_555
S5_3 C25_3 1_555 1_555
N5_3 C25_3 1_555 1_555
O12_3 C27_3 1_555 1_555
C25_3 C28_3 1_555 1_555
C26_3 C27_3 1_555 1_555
C27_3 O19 1_555 1_555
C28_3 H17_3 1_555 1_555
C29_3 C26_3 1_555 1_555
H18_3 C29_3 1_555 1_555
C30_3 N5_3 1_555 1_555
H19_3 C30_3 1_555 1_555
S6_3 S5_3 1_555 1_555
O19_4 C33_3 1_555 1_555
N6_3 C31_3 1_555 1_555
O14_3 C33_3 1_555 1_555
C31_3 S6_3 1_555 1_555
C32_3 C33_3 1_555 1_555
C34_3 C31_3 1_555 1_555
H20_3 C34_3 1_555 1_555
C35_3 C32_3 1_555 1_555
H21_3 C35_3 1_555 1_555
C36_3 N6_3 1_555 1_555
H22_3 C36_3 1_555 1_555
C14_3 C18_3 1_555 1_555
C16_3 C17_3 1_555 1_555
C20_3 C24_3 1_555 1_555
C22_3 C23_3 1_555 1_555
C26_3 C30_3 1_555 1_555
C28_3 C29_3 1_555 1_555
C32_3 C36_3 1_555 1_555
C34_3 C35_3 1_555 1_555
S5_4 C25_4 1_555 1_555
N5_4 C25_4 1_555 1_555
C25_4 C28_4 1_555 1_555
C28_4 H17_4 1_555 1_555
C29_4 C26_4 1_555 1_555
C30_4 N5_4 1_555 1_555
H19_4 C30_4 1_555 1_555
S6_4 S5_4 1_555 1_555
N6_4 C31_4 1_555 1_555
C31_4 S6_4 1_555 1_555
C34_4 C31_4 1_555 1_555
H20_4 C34_4 1_555 1_555
C35_4 C32_4 1_555 1_555
C36_4 N6_4 1_555 1_555
H22_4 C36_4 1_555 1_555
C26_4 C30_4 1_555 1_555
C28_4 C29_4 1_555 1_555
C32_4 C36_4 1_555 1_555
C34_4 C35_4 1_555 1_555
O8_4 C15_4 1_555 1_555
C15_4 O21_2 1_555 1_555
O21_3 C21_4 1_555 1_555
O10_4 C21_4 1_555 1_555
O12_4 C27_4 1_555 1_555
C27_4 O19_2 1_555 1_555
O19_3 C33_4 1_555 1_555
O14_4 C33_4 1_555 1_555
S3_4 C13_4 1_555 1_555
N3_4 C13_4 1_555 1_555
C13_4 C16_4 1_555 1_555
C16_4 H11_4 1_555 1_555
C17_4 C14_4 1_555 1_555
C18_4 N3_4 1_555 1_555
H13_4 C18_4 1_555 1_555
S4_4 S3_4 1_555 1_555
N4_4 C19_4 1_555 1_555
C19_4 S4_4 1_555 1_555
C22_4 C19_4 1_555 1_555
H14_4 C22_4 1_555 1_555
C23_4 C20_4 1_555 1_555
C24_4 N4_4 1_555 1_555
H16_4 C24_4 1_555 1_555
C14_4 C18_4 1_555 1_555
C16_4 C17_4 1_555 1_555
C20_4 C24_4 1_555 1_555
C22_4 C23_4 1_555 1_555
S3_5 C13_5 1_555 1_555
N3_5 C13_5 1_555 1_555
O8_5 C15_5 1_555 1_555
C13_5 C16_5 1_555 1_555
C14_5 C15_5 1_555 1_555
C15_5 O20 1_555 1_555
C16_5 H11_5 1_555 1_555
C17_5 C14_5 1_555 1_555
H12_5 C17_5 1_555 1_555
C18_5 N3_5 1_555 1_555
H13_5 C18_5 1_555 1_555
S4_5 S3_5 1_555 1_555
O20_3 C21_5 1_555 1_555
N4_5 C19_5 1_555 1_555
O10_5 C21_5 1_555 1_555
C19_5 S4_5 1_555 1_555
C20_5 C21_5 1_555 1_555
C22_5 C19_5 1_555 1_555
H14_5 C22_5 1_555 1_555
C23_5 C20_5 1_555 1_555
H15_5 C23_5 1_555 1_555
C24_5 N4_5 1_555 1_555
H16_5 C24_5 1_555 1_555
C14_5 C18_5 1_555 1_555
C16_5 C17_5 1_555 1_555
C20_5 C24_5 1_555 1_555
C22_5 C23_5 1_555 1_555
O8_6 C15_6 1_555 1_555
C15_6 O20_4 1_555 1_555
O20_2 C21_6 1_555 1_555
O10_6 C21_6 1_555 1_555
S3_6 C13_6 1_555 1_555
N3_6 C13_6 1_555 1_555
C13_6 C16_6 1_555 1_555
C16_6 H11_6 1_555 1_555
C17_6 C14_6 1_555 1_555
C18_6 N3_6 1_555 1_555
H13_6 C18_6 1_555 1_555
S4_6 S3_6 1_555 1_555
N4_6 C19_6 1_555 1_555
C19_6 S4_6 1_555 1_555
C22_6 C19_6 1_555 1_555
H14_6 C22_6 1_555 1_555
C23_6 C20_6 1_555 1_555
C24_6 N4_6 1_555 1_555
H16_6 C24_6 1_555 1_555
C14_6 C18_6 1_555 1_555
C16_6 C17_6 1_555 1_555
C20_6 C24_6 1_555 1_555
C22_6 C23_6 1_555 1_555
S1_3 C1_3 1_555 1_555
Na1_2 O1_3 1_555 1_555
O1_3 C3_3 1_555 1_555
N1_3 C1_3 1_555 1_555
O3_3 C3_3 1_555 1_555
C1_3 C4_3 1_555 1_555
C2_3 C3_3 1_555 1_555
C4_3 H3_3 1_555 1_555
C5_3 C2_3 1_555 1_555
H4_3 C5_3 1_555 1_555
C6_3 N1_3 1_555 1_555
H5_3 C6_3 1_555 1_555
S2_3 S1_3 1_555 1_555
O4_3 C9_3 1_555 1_555
N2_3 C7_3 1_555 1_555
O5_3 C9_3 1_555 1_555
C7_3 S2_3 1_555 1_555
C8_3 C9_3 1_555 1_555
C10_3 C7_3 1_555 1_555
H6_3 C10_3 1_555 1_555
C11_3 C8_3 1_555 1_555
H7_3 C11_3 1_555 1_555
C12_3 N2_3 1_555 1_555
H8_3 C12_3 1_555 1_555
In2_3 O6_3 1_555 1_555
O6_3 Na1_2 1_555 1_555
O7_5 In2_3 1_555 1_555
O8_7 C15_7 1_555 1_555
C15_7 O6_3 1_555 1_555
O9_3 C21_7 1_555 1_555
O10_7 C21_7 1_555 1_555
S5_5 C25_5 1_555 1_555
N5_5 C25_5 1_555 1_555
C25_5 C28_5 1_555 1_555
C28_5 H17_5 1_555 1_555
C29_5 C26_5 1_555 1_555
C30_5 N5_5 1_555 1_555
H19_5 C30_5 1_555 1_555
S6_5 S5_5 1_555 1_555
N6_5 C31_5 1_555 1_555
C31_5 S6_5 1_555 1_555
C34_5 C31_5 1_555 1_555
H20_5 C34_5 1_555 1_555
C35_5 C32_5 1_555 1_555
C36_5 N6_5 1_555 1_555
H22_5 C36_5 1_555 1_555
O17_5 In2_3 1_555 1_555
O18_5 In2_3 1_555 1_555
In4_3 O4_3 1_555 1_555
Na2_3 O9_3 1_555 1_555
Na4_10 O4_3 1_555 1_555
O21_5 Na1_2 1_555 1_555
C2_3 C6_3 1_555 1_555
C4_3 C5_3 1_555 1_555
C8_3 C12_3 1_555 1_555
C10_3 C11_3 1_555 1_555
In2_3 O21_5 1_555 1_555
C26_5 C30_5 1_555 1_555
C28_5 C29_5 1_555 1_555
C32_5 C36_5 1_555 1_555
C34_5 C35_5 1_555 1_555
O2_5 In1_2 1_555 1_555
S3_7 C13_7 1_555 1_555
N3_7 C13_7 1_555 1_555
C13_7 C16_7 1_555 1_555
C16_7 H11_7 1_555 1_555
C17_7 C14_7 1_555 1_555
C18_7 N3_7 1_555 1_555
H13_7 C18_7 1_555 1_555
S4_7 S3_7 1_555 1_555
N4_7 C19_7 1_555 1_555
C19_7 S4_7 1_555 1_555
C22_7 C19_7 1_555 1_555
H14_7 C22_7 1_555 1_555
C23_7 C20_7 1_555 1_555
C24_7 N4_7 1_555 1_555
H16_7 C24_7 1_555 1_555
O11_3 In1_2 1_555 1_555
O12_5 C27_5 1_555 1_555
C27_5 O11_3 1_555 1_555
O13_3 C33_5 1_555 1_555
O14_5 C33_5 1_555 1_555
O15_5 In1_2 1_555 1_555
O16_5 In1_2 1_555 1_555
Na2_6 O13_3 1_555 1_555
O19_5 In1_2 1_555 1_555
O20_5 Na1_3 1_555 1_555
Na1_3 O11_3 1_555 1_555
Na1_3 O19_5 1_555 1_555
C14_7 C18_7 1_555 1_555
C16_7 C17_7 1_555 1_555
C20_7 C24_7 1_555 1_555
C22_7 C23_7 1_555 1_555
O7_6 In5_3 1_555 1_555
O17_6 In5_3 1_555 1_555
O18_6 In5_3 1_555 1_555
O20_6 Na2_2 1_555 1_555
S1_4 C1_4 1_555 1_555
N1_4 C1_4 1_555 1_555
C1_4 C4_4 1_555 1_555
C4_4 H3_4 1_555 1_555
C5_4 C2_4 1_555 1_555
C6_4 N1_4 1_555 1_555
H5_4 C6_4 1_555 1_555
S2_4 S1_4 1_555 1_555
N2_4 C7_4 1_555 1_555
C7_4 S2_4 1_555 1_555
C10_4 C7_4 1_555 1_555
H6_4 C10_4 1_555 1_555
C11_4 C8_4 1_555 1_555
C12_4 N2_4 1_555 1_555
H8_4 C12_4 1_555 1_555
C2_4 C6_4 1_555 1_555
C4_4 C5_4 1_555 1_555
C8_4 C12_4 1_555 1_555
C10_4 C11_4 1_555 1_555
Na2_4 O19_6 1_555 1_555
O21_6 Na2_5 1_555 1_555
Na2_7 O1_4 1_555 1_555
O1_4 C3_4 1_555 1_555
O3_4 C3_4 1_555 1_555
O4_4 C9_4 1_555 1_555
O5_4 C9_4 1_555 1_555
In4_4 O4_4 1_555 1_555
Na4_12 O4_4 1_555 1_555
O2_6 In3_2 1_555 1_555
O15_6 In3_2 1_555 1_555
O16_6 In3_2 1_555 1_555
O7_7 In2_4 1_555 1_555
S5_6 C25_6 1_555 1_555
N5_6 C25_6 1_555 1_555
O12_6 C27_6 1_555 1_555
C25_6 C28_6 1_555 1_555
C26_6 C27_6 1_555 1_555
C27_6 O11_4 1_555 1_555
C28_6 H17_6 1_555 1_555
C29_6 C26_6 1_555 1_555
H18_6 C29_6 1_555 1_555
C30_6 N5_6 1_555 1_555
H19_6 C30_6 1_555 1_555
S6_6 S5_6 1_555 1_555
O13_4 C33_6 1_555 1_555
N6_6 C31_6 1_555 1_555
O14_6 C33_6 1_555 1_555
C31_6 S6_6 1_555 1_555
C32_6 C33_6 1_555 1_555
C34_6 C31_6 1_555 1_555
H20_6 C34_6 1_555 1_555
C35_6 C32_6 1_555 1_555
H21_6 C35_6 1_555 1_555
C36_6 N6_6 1_555 1_555
H22_6 C36_6 1_555 1_555
O17_7 In2_4 1_555 1_555
O18_7 In2_4 1_555 1_555
In4_4 O13_4 1_555 1_555
Na4_12 O13_4 1_555 1_555
O20_7 Na4_9 1_555 1_555
O21_7 Na4_9 1_555 1_555
Na4_9 O11_4 1_555 1_555
In2_4 O20_7 1_555 1_555
In2_4 O21_7 1_555 1_555
C26_6 C30_6 1_555 1_555
C28_6 C29_6 1_555 1_555
C32_6 C36_6 1_555 1_555
C34_6 C35_6 1_555 1_555
O2_7 In4_3 1_555 1_555
S3_8 C13_8 1_555 1_555
O6_4 Na4_10 1_555 1_555
N3_8 C13_8 1_555 1_555
O8_8 C15_8 1_555 1_555
C13_8 C16_8 1_555 1_555
C14_8 C15_8 1_555 1_555
C15_8 O6_4 1_555 1_555
C16_8 H11_8 1_555 1_555
C17_8 C14_8 1_555 1_555
H12_8 C17_8 1_555 1_555
C18_8 N3_8 1_555 1_555
H13_8 C18_8 1_555 1_555
S4_8 S3_8 1_555 1_555
O9_4 C21_8 1_555 1_555
N4_8 C19_8 1_555 1_555
O10_8 C21_8 1_555 1_555
C19_8 S4_8 1_555 1_555
C20_8 C21_8 1_555 1_555
C22_8 C19_8 1_555 1_555
H14_8 C22_8 1_555 1_555
C23_8 C20_8 1_555 1_555
H15_8 C23_8 1_555 1_555
C24_8 N4_8 1_555 1_555
H16_8 C24_8 1_555 1_555
O15_7 In4_3 1_555 1_555
O16_7 In4_3 1_555 1_555
In5_4 O9_4 1_555 1_555
Na4_11 O9_4 1_555 1_555
O19_7 In4_3 1_555 1_555
Na4_10 O19_7 1_555 1_555
C14_8 C18_8 1_555 1_555
C16_8 C17_8 1_555 1_555
C20_8 C24_8 1_555 1_555
C22_8 C23_8 1_555 1_555
O7_8 In5_4 1_555 1_555
O17_8 In5_4 1_555 1_555
O18_8 In5_4 1_555 1_555
O20_8 Na4_11 1_555 1_555
Na4_11 O19_8 1_555 1_555
In5_4 O20_8 1_555 1_555
O2_8 In4_4 1_555 1_555
O15_8 In4_4 1_555 1_555
O16_8 In4_4 1_555 1_555
O21_8 Na4_12 1_555 1_555
S3_9 C13_9 1_555 1_555
N3_9 C13_9 1_555 1_555
O8_9 C15_9 1_555 1_555
C13_9 C16_9 1_555 1_555
C14_9 C15_9 1_555 1_555
C15_9 O21_5 1_555 1_555
C16_9 H11_9 1_555 1_555
C17_9 C14_9 1_555 1_555
H12_9 C17_9 1_555 1_555
C18_9 N3_9 1_555 1_555
H13_9 C18_9 1_555 1_555
S4_9 S3_9 1_555 1_555
O21_8 C21_9 1_555 1_555
N4_9 C19_9 1_555 1_555
O10_9 C21_9 1_555 1_555
C19_9 S4_9 1_555 1_555
C20_9 C21_9 1_555 1_555
C22_9 C19_9 1_555 1_555
H14_9 C22_9 1_555 1_555
C23_9 C20_9 1_555 1_555
H15_9 C23_9 1_555 1_555
C24_9 N4_9 1_555 1_555
H16_9 C24_9 1_555 1_555
C14_9 C18_9 1_555 1_555
C16_9 C17_9 1_555 1_555
C20_9 C24_9 1_555 1_555
C22_9 C23_9 1_555 1_555
S5_7 C25_7 1_555 1_555
N5_7 C25_7 1_555 1_555
O12_7 C27_7 1_555 1_555
C25_7 C28_7 1_555 1_555
C26_7 C27_7 1_555 1_555
C27_7 O19_5 1_555 1_555
C28_7 H17_7 1_555 1_555
C29_7 C26_7 1_555 1_555
H18_7 C29_7 1_555 1_555
C30_7 N5_7 1_555 1_555
H19_7 C30_7 1_555 1_555
S6_7 S5_7 1_555 1_555
O19_8 C33_7 1_555 1_555
N6_7 C31_7 1_555 1_555
O14_7 C33_7 1_555 1_555
C31_7 S6_7 1_555 1_555
C32_7 C33_7 1_555 1_555
C34_7 C31_7 1_555 1_555
H20_7 C34_7 1_555 1_555
C35_7 C32_7 1_555 1_555
H21_7 C35_7 1_555 1_555
C36_7 N6_7 1_555 1_555
H22_7 C36_7 1_555 1_555
C26_7 C30_7 1_555 1_555
C28_7 C29_7 1_555 1_555
C32_7 C36_7 1_555 1_555
C34_7 C35_7 1_555 1_555
S5_8 C25_8 1_555 1_555
N5_8 C25_8 1_555 1_555
C25_8 C28_8 1_555 1_555
C28_8 H17_8 1_555 1_555
C29_8 C26_8 1_555 1_555
C30_8 N5_8 1_555 1_555
H19_8 C30_8 1_555 1_555
S6_8 S5_8 1_555 1_555
N6_8 C31_8 1_555 1_555
C31_8 S6_8 1_555 1_555
C34_8 C31_8 1_555 1_555
H20_8 C34_8 1_555 1_555
C35_8 C32_8 1_555 1_555
C36_8 N6_8 1_555 1_555
H22_8 C36_8 1_555 1_555
C26_8 C30_8 1_555 1_555
C28_8 C29_8 1_555 1_555
C32_8 C36_8 1_555 1_555
C34_8 C35_8 1_555 1_555
O12_8 C27_8 1_555 1_555
C27_8 O19_6 1_555 1_555
O19_7 C33_8 1_555 1_555
O14_8 C33_8 1_555 1_555
O8_10 C15_10 1_555 1_555
C15_10 O21_6 1_555 1_555
O21_7 C21_10 1_555 1_555
O10_10 C21_10 1_555 1_555
S3_10 C13_10 1_555 1_555
N3_10 C13_10 1_555 1_555
C13_10 C16_10 1_555 1_555
C16_10 H11_10 1_555 1_555
C17_10 C14_10 1_555 1_555
C18_10 N3_10 1_555 1_555
H13_10 C18_10 1_555 1_555
S4_10 S3_10 1_555 1_555
N4_10 C19_10 1_555 1_555
C19_10 S4_10 1_555 1_555
C22_10 C19_10 1_555 1_555
H14_10 C22_10 1_555 1_555
C23_10 C20_10 1_555 1_555
C24_10 N4_10 1_555 1_555
H16_10 C24_10 1_555 1_555
C14_10 C18_10 1_555 1_555
C16_10 C17_10 1_555 1_555
C20_10 C24_10 1_555 1_555
C22_10 C23_10 1_555 1_555
S3_11 C13_11 1_555 1_555
N3_11 C13_11 1_555 1_555
O8_11 C15_11 1_555 1_555
C13_11 C16_11 1_555 1_555
C14_11 C15_11 1_555 1_555
C15_11 O20_5 1_555 1_555
C16_11 H11_11 1_555 1_555
C17_11 C14_11 1_555 1_555
H12_11 C17_11 1_555 1_555
C18_11 N3_11 1_555 1_555
H13_11 C18_11 1_555 1_555
S4_11 S3_11 1_555 1_555
O20_7 C21_11 1_555 1_555
N4_11 C19_11 1_555 1_555
O10_11 C21_11 1_555 1_555
C19_11 S4_11 1_555 1_555
C20_11 C21_11 1_555 1_555
C22_11 C19_11 1_555 1_555
H14_11 C22_11 1_555 1_555
C23_11 C20_11 1_555 1_555
H15_11 C23_11 1_555 1_555
C24_11 N4_11 1_555 1_555
H16_11 C24_11 1_555 1_555
C14_11 C18_11 1_555 1_555
C16_11 C17_11 1_555 1_555
C20_11 C24_11 1_555 1_555
C22_11 C23_11 1_555 1_555
O8_12 C15_12 1_555 1_555
C15_12 O20_8 1_555 1_555
O20_6 C21_12 1_555 1_555
O10_12 C21_12 1_555 1_555
S3_12 C13_12 1_555 1_555
N3_12 C13_12 1_555 1_555
C13_12 C16_12 1_555 1_555
C16_12 H11_12 1_555 1_555
C17_12 C14_12 1_555 1_555
C18_12 N3_12 1_555 1_555
H13_12 C18_12 1_555 1_555
S4_12 S3_12 1_555 1_555
N4_12 C19_12 1_555 1_555
C19_12 S4_12 1_555 1_555
C22_12 C19_12 1_555 1_555
H14_12 C22_12 1_555 1_555
C23_12 C20_12 1_555 1_555
C24_12 N4_12 1_555 1_555
H16_12 C24_12 1_555 1_555
C14_12 C18_12 1_555 1_555
C16_12 C17_12 1_555 1_555
C20_12 C24_12 1_555 1_555
C22_12 C23_12 1_555 1_555

#END
