
###############################################################################
#
# This file contains modified crystal structure data generated from the
# MOF subset of the Cambridge Structural Database (CSD) v542 
# hosted by the Cambridge Crystallographic Data Centre (CCDC).
#
# This work is licensed under the Creative Commons
# Attribution-NonCommercial-ShareAlike 4.0 International License.
# To view a copy of this license, visit
# http://creativecommons.org/licenses/by-nc-sa/4.0/
# or send a letter to
# Creative Commons, PO Box 1866, Mountain View, CA 94042, USA.
#
# CIF created using the CSD Python API on 22 February 2021
# The structure has been converted into the P1 space group
# The structure has a 3D framework
# The original CSD entry VUYYAS is in the monoclinic crystal system
# The framework has been calculated to contain at least 10.0% void space
# The void calculation uses a probe of radius 1.32A, grid spacing 0.4
# The framework is charged, counterions have been retained in the structure
#
###############################################################################

data_VUYYAS
_chemical_formula_moiety         '(C264 H216 Cl8 In8 O68 8-)n'
_symmetry_cell_setting           triclinic
_symmetry_space_group_name_H-M   'P 1'
_symmetry_Int_Tables_number      1
_space_group_name_Hall           'P 1'
loop_
_symmetry_equiv_pos_site_id
_symmetry_equiv_pos_as_xyz
1 x,y,z
_cell_length_a                   38.698(2)
_cell_length_b                   9.9673(4)
_cell_length_c                   36.412(3)
_cell_angle_alpha                90
_cell_angle_beta                 113.672(8)
_cell_angle_gamma                90
_cell_volume                     12862.9
loop_
_atom_site_label
_atom_site_type_symbol
_atom_site_fract_x
_atom_site_fract_y
_atom_site_fract_z
O5 O 0.30118(15) 0.0540(5) 0.45473(19)
H6 H 0.366496 0.035881 0.508151
In3 In 0.24973(2) 0.07578(5) 0.39366(2)
In1 In 0.74973(2) 0.42422(5) 0.89366(2)
Cl1 Cl 0.78398(4) 0.24601(14) 0.87301(5)
O1 O 0.72588(14) 0.6806(5) 0.43317(16)
O2 O 0.71412(16) 0.4709(6) 0.42028(18)
O3 O 0.29273(14) 0.9173(5) 0.40530(18)
O4 O 0.46042(15) 0.7759(6) 0.52340(18)
O6 O 0.72027(17) 0.5351(7) 0.83921(18)
O7 O 0.69190(17) 0.3558(7) 0.84189(18)
O8 O 0.61052(18) 0.5671(6) 0.5129(2)
O9 O 0.5859(3) 0.5805(7) 0.6701(2)
C1 C 0.66298(19) 0.6713(8) 0.5051(2)
H1 H 0.665338 0.736075 0.524351
C2 C 0.68646(19) 0.6724(8) 0.4857(2)
H2 H 0.704437 0.740052 0.491521
C3 C 0.57915(19) 0.6297(9) 0.5536(3)
C4 C 0.70978(19) 0.5765(6) 0.4359(2)
C5 C 0.6846(2) 0.5754(7) 0.4572(2)
C6 C 0.5418(2) 0.6656(8) 0.5281(3)
C7 C 0.3515(2) 0.9061(8) 0.4624(3)
C8 C 0.5868(2) 0.5664(8) 0.5889(3)
C9 C 0.3130(2) 0.9633(8) 0.4396(3)
C10 C 0.5130(2) 0.6273(9) 0.5398(2)
C11 C 0.5204(2) 0.5675(9) 0.5760(3)
C12 C 0.42433(18) 0.8135(8) 0.5022(2)
C13 C 0.6106(2) 0.6678(9) 0.5402(3)
H3 H 0.605684 0.755022 0.527355
H4 H 0.634736 0.670642 0.563029
C14 C 0.6363(2) 0.5760(8) 0.4964(3)
C15 C 0.5580(2) 0.5367(10) 0.6009(2)
C16 C 0.3640(2) 0.8021(8) 0.4470(3)
H5 H 0.348068 0.763591 0.422855
C17 C 0.3751(2) 0.9646(9) 0.4976(3)
C18 C 0.4010(2) 0.7517(9) 0.4671(3)
H7 H 0.409348 0.678833 0.456922
C19 C 0.6925(2) 0.4572(10) 0.8234(2)
C20 C 0.4723(2) 0.6505(9) 0.5118(3)
H8 H 0.470017 0.655822 0.484271
H9 H 0.456670 0.577190 0.513756
C21 C 0.6631(3) 0.4883(10) 0.7829(3)
C22 C 0.6341(3) 0.4736(10) 0.4697(3)
H10 H 0.616588 0.404910 0.465093
C23 C 0.6581(3) 0.4746(10) 0.4502(3)
H11 H 0.656478 0.406668 0.432082
C24 C 0.4116(2) 0.9185(9) 0.5177(3)
H12 H 0.427511 0.958476 0.541619
C25 C 0.5680(3) 0.4745(11) 0.6423(3)
H13 H 0.545513 0.443708 0.645278
H14 H 0.585057 0.399241 0.646397
C26 C 0.6365(3) 0.3941(12) 0.7634(3)
H15 H 0.636233 0.312317 0.775510
C27 C 0.6280(3) 0.5242(15) 0.6138(4)
H16 H 0.640640 0.509134 0.596222
H17 H 0.628370 0.443140 0.628197
H18 H 0.640763 0.594080 0.632509
C28 C 0.6109(4) 0.5427(12) 0.7078(3)
C29 C 0.4894(3) 0.5396(14) 0.5898(3)
H19 H 0.467590 0.591577 0.574171
H20 H 0.497724 0.563387 0.617586
H21 H 0.483194 0.445878 0.586508
C30 C 0.5333(3) 0.7386(13) 0.4897(3)
H22 H 0.525041 0.828008 0.491841
H23 H 0.513813 0.692223 0.468272
H24 H 0.555667 0.742720 0.484418
C31 C 0.6094(3) 0.4223(12) 0.7244(3)
H25 H 0.590948 0.359711 0.710471
C32 C 0.6633(4) 0.6062(11) 0.7653(3)
H26 H 0.681994 0.668933 0.778480
C33 C 0.6369(4) 0.6347(12) 0.7288(3)
H27 H 0.636571 0.719183 0.717782
In2 In 0.74973(2) 0.57578(5) 0.39366(2)
O10 O 0.72588(14) 0.3194(5) 0.93317(16)
O11 O 0.71412(16) 0.5291(6) 0.92028(18)
O12 O 0.79273(14) 0.5827(5) 0.90530(18)
O13 O 0.80118(15) 0.4460(5) 0.95473(19)
O1_2 O 0.22588(14) 0.1806(5) 0.43317(16)
O6_2 O 0.22027(17) 0.0351(7) 0.83921(18)
O8_2 O 0.11052(18) 0.0671(6) 0.5129(2)
O9_2 O 0.0859(3) 0.0805(7) 0.6701(2)
C1_2 C 0.16298(19) 0.1713(8) 0.5051(2)
H1_2 H 0.165338 0.236075 0.524351
C2_2 C 0.18646(19) 0.1724(8) 0.4857(2)
H2_2 H 0.204437 0.240052 0.491521
C3_2 C 0.07915(19) 0.1297(9) 0.5536(3)
C4_2 C 0.20978(19) 0.0765(6) 0.4359(2)
C5_2 C 0.1846(2) 0.0754(7) 0.4572(2)
C6_2 C 0.0418(2) 0.1656(8) 0.5281(3)
C8_2 C 0.0868(2) 0.0664(8) 0.5889(3)
C10_2 C 0.0130(2) 0.1273(9) 0.5398(2)
C11_2 C 0.0204(2) 0.0675(9) 0.5760(3)
C13_2 C 0.1106(2) 0.1678(9) 0.5402(3)
H3_2 H 0.105684 0.255022 0.527355
H4_2 H 0.134736 0.170642 0.563029
C14_2 C 0.1363(2) 0.0760(8) 0.4964(3)
C15_2 C 0.0580(2) 0.0367(10) 0.6009(2)
C27_2 C 0.1280(3) 0.0242(15) 0.6138(4)
H16_2 H 0.140640 0.009134 0.596222
H18_2 H 0.140763 0.094080 0.632509
C28_2 C 0.1109(4) 0.0427(12) 0.7078(3)
C30_2 C 0.0333(3) 0.2386(13) 0.4897(3)
H22_2 H 0.025041 0.328008 0.491841
H23_2 H 0.013813 0.192223 0.468272
H24_2 H 0.055667 0.242720 0.484418
C32_2 C 0.1633(4) 0.1062(11) 0.7653(3)
H26_2 H 0.181994 0.168933 0.778480
C33_2 C 0.1369(4) 0.1347(12) 0.7288(3)
H27_2 H 0.136571 0.219183 0.717782
O11_2 O 0.21412(16) 0.0291(6) 0.92028(18)
O12_2 O 0.29273(14) 0.0827(5) 0.90530(18)
In1_2 In 0.24973(2) 0.92422(5) 0.89366(2)
Cl1_2 Cl 0.28398(4) 0.74601(14) 0.87301(5)
O2_2 O 0.21412(16) 0.9709(6) 0.42028(18)
O7_2 O 0.19190(17) 0.8558(7) 0.84189(18)
C19_2 C 0.1925(2) 0.9572(10) 0.8234(2)
C21_2 C 0.1631(3) 0.9883(10) 0.7829(3)
C22_2 C 0.1341(3) 0.9736(10) 0.4697(3)
H10_2 H 0.116588 0.904910 0.465093
C23_2 C 0.1581(3) 0.9746(10) 0.4502(3)
H11_2 H 0.156478 0.906668 0.432082
C25_2 C 0.0680(3) 0.9745(11) 0.6423(3)
H13_2 H 0.045513 0.943708 0.645278
H14_2 H 0.085057 0.899241 0.646397
C26_2 C 0.1365(3) 0.8941(12) 0.7634(3)
H15_2 H 0.136233 0.812317 0.775510
H17_2 H 0.128370 0.943140 0.628197
C31_2 C 0.1094(3) 0.9223(12) 0.7244(3)
H25_2 H 0.090948 0.859711 0.710471
O10_2 O 0.22588(14) 0.8194(5) 0.93317(16)
O13_2 O 0.30118(15) 0.9460(5) 0.95473(19)
O3_2 O 0.79273(14) 0.4173(5) 0.40530(18)
O4_2 O 0.96042(15) 0.2759(6) 0.52340(18)
O5_2 O 0.80118(15) 0.5540(5) 0.45473(19)
C7_2 C 0.8515(2) 0.4061(8) 0.4624(3)
C9_2 C 0.8130(2) 0.4633(8) 0.4396(3)
C12_2 C 0.92433(18) 0.3135(8) 0.5022(2)
C16_2 C 0.8640(2) 0.3021(8) 0.4470(3)
H5_2 H 0.848068 0.263591 0.422855
C17_2 C 0.8751(2) 0.4646(9) 0.4976(3)
H6_2 H 0.866496 0.535881 0.508151
C18_2 C 0.9010(2) 0.2517(9) 0.4671(3)
H7_2 H 0.909348 0.178833 0.456922
C20_2 C 0.9723(2) 0.1505(9) 0.5118(3)
H8_2 H 0.970017 0.155822 0.484271
H9_2 H 0.956670 0.077190 0.513756
C24_2 C 0.9116(2) 0.4185(9) 0.5177(3)
H12_2 H 0.927511 0.458476 0.541619
C29_2 C 0.9894(3) 0.0396(14) 0.5898(3)
H19_2 H 0.967590 0.091577 0.574171
H20_2 H 0.997724 0.063387 0.617586
Cl1_3 Cl 0.78398(4) 0.75399(14) 0.37301(5)
O4_3 O 0.46042(15) 0.2241(6) 0.02340(18)
O6_3 O 0.72027(17) 0.4649(7) 0.33921(18)
O7_3 O 0.69190(17) 0.6442(7) 0.34189(18)
O8_3 O 0.61052(18) 0.4329(6) 0.0129(2)
O9_3 O 0.5859(3) 0.4195(7) 0.1701(2)
C1_3 C 0.66298(19) 0.3287(8) 0.0051(2)
H1_3 H 0.665338 0.263925 0.024351
C3_3 C 0.57915(19) 0.3703(9) 0.0536(3)
C6_3 C 0.5418(2) 0.3344(8) 0.0281(3)
C8_3 C 0.5868(2) 0.4336(8) 0.0889(3)
C10_3 C 0.5130(2) 0.3727(9) 0.0398(2)
C11_3 C 0.5204(2) 0.4325(9) 0.0760(3)
C12_3 C 0.42433(18) 0.1865(8) 0.0022(2)
C13_3 C 0.6106(2) 0.3322(9) 0.0402(3)
H3_3 H 0.605684 0.244978 0.027355
H4_3 H 0.634736 0.329358 0.063029
C15_3 C 0.5580(2) 0.4633(10) 0.1009(2)
C19_3 C 0.6925(2) 0.5428(10) 0.3234(2)
C20_3 C 0.4723(2) 0.3495(9) 0.0118(3)
H9_3 H 0.456670 0.422810 0.013756
C21_3 C 0.6631(3) 0.5117(10) 0.2829(3)
C24_3 C 0.4116(2) 0.0815(9) 0.0177(3)
H12_3 H 0.427511 0.041524 0.041619
C25_3 C 0.5680(3) 0.5255(11) 0.1423(3)
H13_3 H 0.545513 0.556292 0.145278
H14_3 H 0.585057 0.600759 0.146397
C26_3 C 0.6365(3) 0.6059(12) 0.2634(3)
H15_3 H 0.636233 0.687683 0.275510
C27_3 C 0.6280(3) 0.4758(15) 0.1138(4)
H16_3 H 0.640640 0.490866 0.096222
H17_3 H 0.628370 0.556860 0.128197
H18_3 H 0.640763 0.405920 0.132509
C28_3 C 0.6109(4) 0.4573(12) 0.2078(3)
C29_3 C 0.4894(3) 0.4604(14) 0.0898(3)
H19_3 H 0.467590 0.408423 0.074171
H20_3 H 0.497724 0.436613 0.117586
H21_2 H 0.483194 0.554122 0.086508
C31_3 C 0.6094(3) 0.5777(12) 0.2244(3)
H25_3 H 0.590948 0.640289 0.210471
C32_3 C 0.6633(4) 0.3938(11) 0.2653(3)
H26_3 H 0.681994 0.331067 0.278480
C33_3 C 0.6369(4) 0.3653(12) 0.2288(3)
H27_3 H 0.636571 0.280817 0.217782
C2_3 C 0.68646(19) 0.3276(8) 0.9857(2)
H2_3 H 0.704437 0.259948 0.991521
C4_3 C 0.70978(19) 0.4235(6) 0.9359(2)
C5_3 C 0.6846(2) 0.4246(7) 0.9572(2)
C7_3 C 0.3515(2) 0.0939(8) 0.9624(3)
C9_3 C 0.3130(2) 0.0367(8) 0.9396(3)
C14_3 C 0.6363(2) 0.4240(8) 0.9964(3)
C16_3 C 0.3640(2) 0.1979(8) 0.9470(3)
H5_3 H 0.348068 0.236409 0.922855
C17_3 C 0.3751(2) 0.0354(9) 0.9976(3)
C18_3 C 0.4010(2) 0.2483(9) 0.9671(3)
H7_3 H 0.409348 0.321167 0.956922
H8_3 H 0.470017 0.344178 0.984271
C22_3 C 0.6341(3) 0.5264(10) 0.9697(3)
H10_3 H 0.616588 0.595090 0.965093
C23_3 C 0.6581(3) 0.5254(10) 0.9502(3)
H11_3 H 0.656478 0.593332 0.932082
C30_3 C 0.5333(3) 0.2614(13) 0.9897(3)
H22_3 H 0.525041 0.171992 0.991841
H23_3 H 0.513813 0.307777 0.968272
H24_3 H 0.555667 0.257280 0.984418
Cl1_4 Cl 0.28398(4) 0.25399(14) 0.37301(5)
O7_4 O 0.19190(17) 0.1442(7) 0.34189(18)
C19_4 C 0.1925(2) 0.0428(10) 0.3234(2)
C21_4 C 0.1631(3) 0.0117(10) 0.2829(3)
C25_4 C 0.0680(3) 0.0255(11) 0.1423(3)
H13_4 H 0.045513 0.056292 0.145278
H14_4 H 0.085057 0.100759 0.146397
C26_4 C 0.1365(3) 0.1059(12) 0.2634(3)
H15_4 H 0.136233 0.187683 0.275510
H17_4 H 0.128370 0.056860 0.128197
C31_4 C 0.1094(3) 0.0777(12) 0.2244(3)
H25_4 H 0.090948 0.140289 0.210471
C22_4 C 0.1341(3) 0.0264(10) 0.9697(3)
H10_4 H 0.116588 0.095090 0.965093
C23_4 C 0.1581(3) 0.0254(10) 0.9502(3)
H11_4 H 0.156478 0.093332 0.932082
O6_4 O 0.22027(17) 0.9649(7) 0.33921(18)
O8_4 O 0.11052(18) 0.9329(6) 0.0129(2)
O9_4 O 0.0859(3) 0.9195(7) 0.1701(2)
C1_4 C 0.16298(19) 0.8287(8) 0.0051(2)
H1_4 H 0.165338 0.763925 0.024351
C3_4 C 0.07915(19) 0.8703(9) 0.0536(3)
C6_4 C 0.0418(2) 0.8344(8) 0.0281(3)
C8_4 C 0.0868(2) 0.9336(8) 0.0889(3)
C10_4 C 0.0130(2) 0.8727(9) 0.0398(2)
C11_4 C 0.0204(2) 0.9325(9) 0.0760(3)
C13_4 C 0.1106(2) 0.8322(9) 0.0402(3)
H3_4 H 0.105684 0.744978 0.027355
H4_4 H 0.134736 0.829358 0.063029
C15_4 C 0.0580(2) 0.9633(10) 0.1009(2)
C27_4 C 0.1280(3) 0.9758(15) 0.1138(4)
H16_4 H 0.140640 0.990866 0.096222
H18_4 H 0.140763 0.905920 0.132509
C28_4 C 0.1109(4) 0.9573(12) 0.2078(3)
C32_4 C 0.1633(4) 0.8938(11) 0.2653(3)
H26_4 H 0.181994 0.831067 0.278480
C33_4 C 0.1369(4) 0.8653(12) 0.2288(3)
H27_4 H 0.136571 0.780817 0.217782
C2_4 C 0.18646(19) 0.8276(8) 0.9857(2)
H2_4 H 0.204437 0.759948 0.991521
C4_4 C 0.20978(19) 0.9235(6) 0.9359(2)
C5_4 C 0.1846(2) 0.9246(7) 0.9572(2)
C14_4 C 0.1363(2) 0.9240(8) 0.9964(3)
C30_4 C 0.0333(3) 0.7614(13) 0.9897(3)
H22_4 H 0.025041 0.671992 0.991841
H23_4 H 0.013813 0.807777 0.968272
H24_4 H 0.055667 0.757280 0.984418
C7_4 C 0.8515(2) 0.5939(8) 0.9624(3)
C9_4 C 0.8130(2) 0.5367(8) 0.9396(3)
C16_4 C 0.8640(2) 0.6979(8) 0.9470(3)
H5_4 H 0.848068 0.736409 0.922855
C17_4 C 0.8751(2) 0.5354(9) 0.9976(3)
C18_4 C 0.9010(2) 0.7483(9) 0.9671(3)
H7_4 H 0.909348 0.821167 0.956922
H8_4 H 0.970017 0.844178 0.984271
O5_3 O 0.69882(15) 0.0540(5) 0.04527(19)
In3_2 In 0.75027(2) 0.07578(5) 0.10634(2)
O1_3 O 0.27412(14) 0.6806(5) 0.06683(16)
O2_3 O 0.28588(16) 0.4709(6) 0.07972(18)
O3_3 O 0.70727(14) 0.9173(5) 0.09470(18)
C2_5 C 0.31354(19) 0.6724(8) 0.0143(2)
H2_5 H 0.295563 0.740052 0.008479
C4_5 C 0.29022(19) 0.5765(6) 0.0641(2)
C5_5 C 0.3154(2) 0.5754(7) 0.0428(2)
C7_5 C 0.6485(2) 0.9061(8) 0.0376(3)
C9_5 C 0.6870(2) 0.9633(8) 0.0604(3)
C14_5 C 0.3637(2) 0.5760(8) 0.0036(3)
C16_5 C 0.6360(2) 0.8021(8) 0.0530(3)
H5_5 H 0.651932 0.763591 0.077145
C17_5 C 0.6249(2) 0.9646(9) 0.0024(3)
C18_5 C 0.5990(2) 0.7517(9) 0.0329(3)
H7_5 H 0.590652 0.678833 0.043078
H8_5 H 0.529983 0.655822 0.015729
C22_5 C 0.3659(3) 0.4736(10) 0.0303(3)
H10_5 H 0.383412 0.404910 0.034907
C23_5 C 0.3419(3) 0.4746(10) 0.0498(3)
H11_5 H 0.343522 0.406668 0.067918
C30_5 C 0.4667(3) 0.7386(13) 0.0103(3)
H22_5 H 0.474959 0.828008 0.008159
H23_5 H 0.486187 0.692223 0.031728
H24_5 H 0.444333 0.742720 0.015582
In2_2 In 0.25027(2) 0.57578(5) 0.10634(2)
In1_3 In 0.25027(2) 0.42422(5) 0.60634(2)
Cl1_5 Cl 0.21602(4) 0.24601(14) 0.62699(5)
O4_4 O 0.53958(15) 0.7759(6) 0.97660(18)
O6_5 O 0.27973(17) 0.5351(7) 0.66079(18)
O7_5 O 0.30810(17) 0.3558(7) 0.65811(18)
O8_5 O 0.38948(18) 0.5671(6) 0.9871(2)
O9_5 O 0.4141(3) 0.5805(7) 0.8299(2)
C1_5 C 0.33702(19) 0.6713(8) 0.9949(2)
H1_5 H 0.334662 0.736075 0.975649
C3_5 C 0.42085(19) 0.6297(9) 0.9464(3)
C6_5 C 0.4582(2) 0.6656(8) 0.9719(3)
C8_5 C 0.4132(2) 0.5664(8) 0.9111(3)
C10_5 C 0.4870(2) 0.6273(9) 0.9602(2)
C11_5 C 0.4796(2) 0.5675(9) 0.9240(3)
C12_4 C 0.57567(18) 0.8135(8) 0.9978(2)
C13_5 C 0.3894(2) 0.6678(9) 0.9598(3)
H3_5 H 0.394316 0.755022 0.972645
H4_5 H 0.365264 0.670642 0.936971
C15_5 C 0.4420(2) 0.5367(10) 0.8991(2)
C19_5 C 0.3075(2) 0.4572(10) 0.6766(2)
C20_4 C 0.5277(2) 0.6505(9) 0.9882(3)
H9_4 H 0.543330 0.577190 0.986244
C21_5 C 0.3369(3) 0.4883(10) 0.7171(3)
C24_4 C 0.5884(2) 0.9185(9) 0.9823(3)
H12_4 H 0.572489 0.958476 0.958381
C25_5 C 0.4320(3) 0.4745(11) 0.8577(3)
H13_5 H 0.454487 0.443708 0.854722
H14_5 H 0.414943 0.399241 0.853603
C26_5 C 0.3635(3) 0.3941(12) 0.7366(3)
H15_5 H 0.363767 0.312317 0.724490
C27_5 C 0.3720(3) 0.5242(15) 0.8862(4)
H16_5 H 0.359360 0.509134 0.903778
H17_5 H 0.371630 0.443140 0.871803
H18_5 H 0.359237 0.594080 0.867491
C28_5 C 0.3891(4) 0.5427(12) 0.7922(3)
C29_4 C 0.5106(3) 0.5396(14) 0.9102(3)
H19_4 H 0.532410 0.591577 0.925829
H20_4 H 0.502276 0.563387 0.882414
H21_3 H 0.516806 0.445878 0.913492
C31_5 C 0.3906(3) 0.4223(12) 0.7756(3)
H25_5 H 0.409052 0.359711 0.789529
C32_5 C 0.3367(4) 0.6062(11) 0.7347(3)
H26_5 H 0.318006 0.668933 0.721520
C33_5 C 0.3631(4) 0.6347(12) 0.7712(3)
H27_5 H 0.363429 0.719183 0.782218
O10_3 O 0.27412(14) 0.3194(5) 0.56683(16)
O11_3 O 0.28588(16) 0.5291(6) 0.57972(18)
O12_3 O 0.20727(14) 0.5827(5) 0.59470(18)
O13_3 O 0.19882(15) 0.4460(5) 0.54527(19)
O3_4 O 0.20727(14) 0.4173(5) 0.09470(18)
O5_4 O 0.19882(15) 0.5540(5) 0.04527(19)
C7_6 C 0.1485(2) 0.4061(8) 0.0376(3)
C9_6 C 0.1870(2) 0.4633(8) 0.0604(3)
C16_6 C 0.1360(2) 0.3021(8) 0.0530(3)
H5_6 H 0.151932 0.263591 0.077145
C17_6 C 0.1249(2) 0.4646(9) 0.0024(3)
C18_6 C 0.0990(2) 0.2517(9) 0.0329(3)
H7_6 H 0.090652 0.178833 0.043078
H8_6 H 0.029983 0.155822 0.015729
O1_4 O 0.77412(14) 0.1806(5) 0.06683(16)
C2_6 C 0.81354(19) 0.1724(8) 0.0143(2)
H2_6 H 0.795563 0.240052 0.008479
C4_6 C 0.79022(19) 0.0765(6) 0.0641(2)
C5_6 C 0.8154(2) 0.0754(7) 0.0428(2)
C14_6 C 0.8637(2) 0.0760(8) 0.0036(3)
C30_6 C 0.9667(3) 0.2386(13) 0.0103(3)
H22_6 H 0.974959 0.328008 0.008159
H23_6 H 0.986187 0.192223 0.031728
H24_6 H 0.944333 0.242720 0.015582
O6_6 O 0.77973(17) 0.0351(7) 0.66079(18)
O8_6 O 0.88948(18) 0.0671(6) 0.9871(2)
O9_6 O 0.9141(3) 0.0805(7) 0.8299(2)
C1_6 C 0.83702(19) 0.1713(8) 0.9949(2)
H1_6 H 0.834662 0.236075 0.975649
C3_6 C 0.92085(19) 0.1297(9) 0.9464(3)
C6_6 C 0.9582(2) 0.1656(8) 0.9719(3)
C8_6 C 0.9132(2) 0.0664(8) 0.9111(3)
C10_6 C 0.9870(2) 0.1273(9) 0.9602(2)
C11_6 C 0.9796(2) 0.0675(9) 0.9240(3)
C13_6 C 0.8894(2) 0.1678(9) 0.9598(3)
H3_6 H 0.894316 0.255022 0.972645
H4_6 H 0.865264 0.170642 0.936971
C15_6 C 0.9420(2) 0.0367(10) 0.8991(2)
C27_6 C 0.8720(3) 0.0242(15) 0.8862(4)
H16_6 H 0.859360 0.009134 0.903778
H18_6 H 0.859237 0.094080 0.867491
C28_6 C 0.8891(4) 0.0427(12) 0.7922(3)
C32_6 C 0.8367(4) 0.1062(11) 0.7347(3)
H26_6 H 0.818006 0.168933 0.721520
C33_6 C 0.8631(4) 0.1347(12) 0.7712(3)
H27_6 H 0.863429 0.219183 0.782218
O11_4 O 0.78588(16) 0.0291(6) 0.57972(18)
O12_4 O 0.70727(14) 0.0827(5) 0.59470(18)
O2_4 O 0.78588(16) 0.9709(6) 0.07972(18)
C22_6 C 0.8659(3) 0.9736(10) 0.0303(3)
H10_6 H 0.883412 0.904910 0.034907
C23_6 C 0.8419(3) 0.9746(10) 0.0498(3)
H11_6 H 0.843522 0.906668 0.067918
In1_4 In 0.75027(2) 0.92422(5) 0.60634(2)
Cl1_6 Cl 0.71602(4) 0.74601(14) 0.62699(5)
O7_6 O 0.80810(17) 0.8558(7) 0.65811(18)
C19_6 C 0.8075(2) 0.9572(10) 0.6766(2)
C21_6 C 0.8369(3) 0.9883(10) 0.7171(3)
C25_6 C 0.9320(3) 0.9745(11) 0.8577(3)
H13_6 H 0.954487 0.943708 0.854722
H14_6 H 0.914943 0.899241 0.853603
C26_6 C 0.8635(3) 0.8941(12) 0.7366(3)
H15_6 H 0.863767 0.812317 0.724490
H17_6 H 0.871630 0.943140 0.871803
C31_6 C 0.8906(3) 0.9223(12) 0.7756(3)
H25_6 H 0.909052 0.859711 0.789529
O10_4 O 0.77412(14) 0.8194(5) 0.56683(16)
O13_4 O 0.69882(15) 0.9460(5) 0.54527(19)
Cl1_7 Cl 0.21602(4) 0.75399(14) 0.12699(5)
O4_5 O 0.53958(15) 0.2241(6) 0.47660(18)
O6_7 O 0.27973(17) 0.4649(7) 0.16079(18)
O7_7 O 0.30810(17) 0.6442(7) 0.15811(18)
O8_7 O 0.38948(18) 0.4329(6) 0.4871(2)
O9_7 O 0.4141(3) 0.4195(7) 0.3299(2)
C1_7 C 0.33702(19) 0.3287(8) 0.4949(2)
H1_7 H 0.334662 0.263925 0.475649
C2_7 C 0.31354(19) 0.3276(8) 0.5143(2)
H2_7 H 0.295563 0.259948 0.508479
C3_7 C 0.42085(19) 0.3703(9) 0.4464(3)
C4_7 C 0.29022(19) 0.4235(6) 0.5641(2)
C5_7 C 0.3154(2) 0.4246(7) 0.5428(2)
C6_7 C 0.4582(2) 0.3344(8) 0.4719(3)
C7_7 C 0.6485(2) 0.0939(8) 0.5376(3)
C8_7 C 0.4132(2) 0.4336(8) 0.4111(3)
C9_7 C 0.6870(2) 0.0367(8) 0.5604(3)
C10_7 C 0.4870(2) 0.3727(9) 0.4602(2)
C11_7 C 0.4796(2) 0.4325(9) 0.4240(3)
C12_5 C 0.57567(18) 0.1865(8) 0.4978(2)
C13_7 C 0.3894(2) 0.3322(9) 0.4598(3)
H3_7 H 0.394316 0.244978 0.472645
H4_7 H 0.365264 0.329358 0.436971
C14_7 C 0.3637(2) 0.4240(8) 0.5036(3)
C15_7 C 0.4420(2) 0.4633(10) 0.3991(2)
C16_7 C 0.6360(2) 0.1979(8) 0.5530(3)
H5_7 H 0.651932 0.236409 0.577145
C17_7 C 0.6249(2) 0.0354(9) 0.5024(3)
C18_7 C 0.5990(2) 0.2483(9) 0.5329(3)
H7_7 H 0.590652 0.321167 0.543078
C19_7 C 0.3075(2) 0.5428(10) 0.1766(2)
C20_5 C 0.5277(2) 0.3495(9) 0.4882(3)
H8_7 H 0.529983 0.344178 0.515729
H9_5 H 0.543330 0.422810 0.486244
C21_7 C 0.3369(3) 0.5117(10) 0.2171(3)
C22_7 C 0.3659(3) 0.5264(10) 0.5303(3)
H10_7 H 0.383412 0.595090 0.534907
C23_7 C 0.3419(3) 0.5254(10) 0.5498(3)
H11_7 H 0.343522 0.593332 0.567918
C24_5 C 0.5884(2) 0.0815(9) 0.4823(3)
H12_5 H 0.572489 0.041524 0.458381
C25_7 C 0.4320(3) 0.5255(11) 0.3577(3)
H13_7 H 0.454487 0.556292 0.354722
H14_7 H 0.414943 0.600759 0.353603
C26_7 C 0.3635(3) 0.6059(12) 0.2366(3)
H15_7 H 0.363767 0.687683 0.224490
C27_7 C 0.3720(3) 0.4758(15) 0.3862(4)
H16_7 H 0.359360 0.490866 0.403778
H17_7 H 0.371630 0.556860 0.371803
H18_7 H 0.359237 0.405920 0.367491
C28_7 C 0.3891(4) 0.4573(12) 0.2922(3)
C29_5 C 0.5106(3) 0.4604(14) 0.4102(3)
H19_5 H 0.532410 0.408423 0.425829
H20_5 H 0.502276 0.436613 0.382414
H21_4 H 0.516806 0.554122 0.413492
C30_7 C 0.4667(3) 0.2614(13) 0.5103(3)
H22_7 H 0.474959 0.171992 0.508159
H23_7 H 0.486187 0.307777 0.531728
H24_7 H 0.444333 0.257280 0.515582
C31_7 C 0.3906(3) 0.5777(12) 0.2756(3)
H25_7 H 0.409052 0.640289 0.289529
C32_7 C 0.3367(4) 0.3938(11) 0.2347(3)
H26_7 H 0.318006 0.331067 0.221520
C33_7 C 0.3631(4) 0.3653(12) 0.2712(3)
H27_7 H 0.363429 0.280817 0.282218
H6_3 H 0.633504 0.964119 0.491849
O4_6 O 0.03958(15) 0.7241(6) 0.47660(18)
C7_8 C 0.1485(2) 0.5939(8) 0.5376(3)
C9_8 C 0.1870(2) 0.5367(8) 0.5604(3)
C12_6 C 0.07567(18) 0.6865(8) 0.4978(2)
C16_8 C 0.1360(2) 0.6979(8) 0.5530(3)
H5_8 H 0.151932 0.736409 0.577145
C17_8 C 0.1249(2) 0.5354(9) 0.5024(3)
H6_4 H 0.133504 0.464119 0.491849
C18_8 C 0.0990(2) 0.7483(9) 0.5329(3)
H7_8 H 0.090652 0.821167 0.543078
C20_6 C 0.0277(2) 0.8495(9) 0.4882(3)
H8_8 H 0.029983 0.844178 0.515729
H9_6 H 0.043330 0.922810 0.486244
C24_6 C 0.0884(2) 0.5815(9) 0.4823(3)
H12_6 H 0.072489 0.541524 0.458381
C29_6 C 0.0106(3) 0.9604(14) 0.4102(3)
H19_6 H 0.032410 0.908423 0.425829
H20_6 H 0.002276 0.936613 0.382414
Cl1_8 Cl 0.71602(4) 0.25399(14) 0.12699(5)
O7_8 O 0.80810(17) 0.1442(7) 0.15811(18)
C19_8 C 0.8075(2) 0.0428(10) 0.1766(2)
C21_8 C 0.8369(3) 0.0117(10) 0.2171(3)
C22_8 C 0.8659(3) 0.0264(10) 0.5303(3)
H10_8 H 0.883412 0.095090 0.534907
C23_8 C 0.8419(3) 0.0254(10) 0.5498(3)
H11_8 H 0.843522 0.093332 0.567918
C25_8 C 0.9320(3) 0.0255(11) 0.3577(3)
H13_8 H 0.954487 0.056292 0.354722
H14_8 H 0.914943 0.100759 0.353603
C26_8 C 0.8635(3) 0.1059(12) 0.2366(3)
H15_8 H 0.863767 0.187683 0.224490
H17_8 H 0.871630 0.056860 0.371803
C31_8 C 0.8906(3) 0.0777(12) 0.2756(3)
H25_8 H 0.909052 0.140289 0.289529
O6_8 O 0.77973(17) 0.9649(7) 0.16079(18)
O8_8 O 0.88948(18) 0.9329(6) 0.4871(2)
O9_8 O 0.9141(3) 0.9195(7) 0.3299(2)
C1_8 C 0.83702(19) 0.8287(8) 0.4949(2)
H1_8 H 0.834662 0.763925 0.475649
C2_8 C 0.81354(19) 0.8276(8) 0.5143(2)
H2_8 H 0.795563 0.759948 0.508479
C3_8 C 0.92085(19) 0.8703(9) 0.4464(3)
C4_8 C 0.79022(19) 0.9235(6) 0.5641(2)
C5_8 C 0.8154(2) 0.9246(7) 0.5428(2)
C6_8 C 0.9582(2) 0.8344(8) 0.4719(3)
C8_8 C 0.9132(2) 0.9336(8) 0.4111(3)
C10_8 C 0.9870(2) 0.8727(9) 0.4602(2)
C11_8 C 0.9796(2) 0.9325(9) 0.4240(3)
C13_8 C 0.8894(2) 0.8322(9) 0.4598(3)
H3_8 H 0.894316 0.744978 0.472645
H4_8 H 0.865264 0.829358 0.436971
C14_8 C 0.8637(2) 0.9240(8) 0.5036(3)
C15_8 C 0.9420(2) 0.9633(10) 0.3991(2)
C27_8 C 0.8720(3) 0.9758(15) 0.3862(4)
H16_8 H 0.859360 0.990866 0.403778
H18_8 H 0.859237 0.905920 0.367491
C28_8 C 0.8891(4) 0.9573(12) 0.2922(3)
C30_8 C 0.9667(3) 0.7614(13) 0.5103(3)
H22_8 H 0.974959 0.671992 0.508159
H23_8 H 0.986187 0.807777 0.531728
H24_8 H 0.944333 0.757280 0.515582
C32_8 C 0.8367(4) 0.8938(11) 0.2347(3)
H26_8 H 0.818006 0.831067 0.221520
C33_8 C 0.8631(4) 0.8653(12) 0.2712(3)
H27_8 H 0.863429 0.780817 0.282218
H6_5 H 0.633504 0.035881 0.991849
H21_5 H 0.983194 0.945878 0.586508
O4_7 O 0.03958(15) 0.2759(6) 0.97660(18)
C12_7 C 0.07567(18) 0.3135(8) 0.9978(2)
H6_6 H 0.133504 0.535881 0.991849
C20_7 C 0.0277(2) 0.1505(9) 0.9882(3)
H9_7 H 0.043330 0.077190 0.986244
C24_7 C 0.0884(2) 0.4185(9) 0.9823(3)
H12_7 H 0.072489 0.458476 0.958381
C29_7 C 0.0106(3) 0.0396(14) 0.9102(3)
H19_7 H 0.032410 0.091577 0.925829
H20_7 H 0.002276 0.063387 0.882414
H21_6 H 0.016806 0.945878 0.913492
H6_7 H 0.366496 0.964119 0.008151
H21_7 H 0.016806 0.054122 0.413492
H21_8 H 0.983194 0.054122 0.086508
O4_8 O 0.96042(15) 0.7241(6) 0.02340(18)
C12_8 C 0.92433(18) 0.6865(8) 0.0022(2)
H6_8 H 0.866496 0.464119 0.008151
C20_8 C 0.9723(2) 0.8495(9) 0.0118(3)
H9_8 H 0.956670 0.922810 0.013756
C24_8 C 0.9116(2) 0.5815(9) 0.0177(3)
H12_8 H 0.927511 0.541524 0.041619
C29_8 C 0.9894(3) 0.9604(14) 0.0898(3)
H19_8 H 0.967590 0.908423 0.074171
H20_8 H 0.997724 0.936613 0.117586
loop_
_geom_bond_atom_site_label_1
_geom_bond_atom_site_label_2
_geom_bond_site_symmetry_1
_geom_bond_site_symmetry_2
O5 In3 1_555 1_555
In1 Cl1 1_555 1_555
O1 C4 1_555 1_555
O2 C4 1_555 1_555
O3 C9 1_555 1_555
O4 C12 1_555 1_555
O6 In1 1_555 1_555
O7 In1 1_555 1_555
O8 C13 1_555 1_555
O9 C25 1_555 1_555
C1 H1 1_555 1_555
C2 C1 1_555 1_555
H2 C2 1_555 1_555
C3 C6 1_555 1_555
C4 C5 1_555 1_555
C5 C2 1_555 1_555
C6 C10 1_555 1_555
C7 C9 1_555 1_555
C8 C3 1_555 1_555
C10 C11 1_555 1_555
C11 C15 1_555 1_555
C12 C18 1_555 1_555
C13 C3 1_555 1_555
H3 C13 1_555 1_555
H4 C13 1_555 1_555
C14 O8 1_555 1_555
C15 C8 1_555 1_555
C16 C7 1_555 1_555
H5 C16 1_555 1_555
C17 C7 1_555 1_555
C18 C16 1_555 1_555
H7 C18 1_555 1_555
C19 O6 1_555 1_555
C20 O4 1_555 1_555
H8 C20 1_555 1_555
H9 C20 1_555 1_555
C21 C19 1_555 1_555
C22 C14 1_555 1_555
H10 C22 1_555 1_555
C23 C5 1_555 1_555
H11 C23 1_555 1_555
C24 C12 1_555 1_555
H12 C24 1_555 1_555
C25 C15 1_555 1_555
H13 C25 1_555 1_555
H14 C25 1_555 1_555
C26 C21 1_555 1_555
H15 C26 1_555 1_555
C27 C8 1_555 1_555
H16 C27 1_555 1_555
H17 C27 1_555 1_555
H18 C27 1_555 1_555
C28 O9 1_555 1_555
C29 C11 1_555 1_555
H19 C29 1_555 1_555
H20 C29 1_555 1_555
H21 C29 1_555 1_555
C30 C6 1_555 1_555
H22 C30 1_555 1_555
H23 C30 1_555 1_555
H24 C30 1_555 1_555
C31 C26 1_555 1_555
H25 C31 1_555 1_555
C32 C21 1_555 1_555
H26 C32 1_555 1_555
C33 C28 1_555 1_555
H27 C33 1_555 1_555
In2 O1 1_555 1_555
O10 In1 1_555 1_555
O11 In1 1_555 1_555
O12 In1 1_555 1_555
O13 In1 1_555 1_555
O2 In2 1_555 1_555
O7 C19 1_555 1_555
C1 C14 1_555 1_555
C10 C20 1_555 1_555
C17 C24 1_555 1_555
C22 C23 1_555 1_555
C28 C31 1_555 1_555
C32 C33 1_555 1_555
O1_2 C4_2 1_555 1_555
O8_2 C13_2 1_555 1_555
C1_2 H1_2 1_555 1_555
C2_2 C1_2 1_555 1_555
H2_2 C2_2 1_555 1_555
C3_2 C6_2 1_555 1_555
C4_2 C5_2 1_555 1_555
C5_2 C2_2 1_555 1_555
C6_2 C10_2 1_555 1_555
C8_2 C3_2 1_555 1_555
C10_2 C11_2 1_555 1_555
C11_2 C15_2 1_555 1_555
C13_2 C3_2 1_555 1_555
H3_2 C13_2 1_555 1_555
H4_2 C13_2 1_555 1_555
C14_2 O8_2 1_555 1_555
C15_2 C8_2 1_555 1_555
C27_2 C8_2 1_555 1_555
H16_2 C27_2 1_555 1_555
H18_2 C27_2 1_555 1_555
C28_2 O9_2 1_555 1_555
C30_2 C6_2 1_555 1_555
H22_2 C30_2 1_555 1_555
H23_2 C30_2 1_555 1_555
H24_2 C30_2 1_555 1_555
H26_2 C32_2 1_555 1_555
C33_2 C28_2 1_555 1_555
H27_2 C33_2 1_555 1_555
In3 O1_2 1_555 1_555
C1_2 C14_2 1_555 1_555
C32_2 C33_2 1_555 1_555
In1_2 Cl1_2 1_555 1_555
O7_2 In1_2 1_555 1_555
C21_2 C19_2 1_555 1_555
H10_2 C22_2 1_555 1_555
H11_2 C23_2 1_555 1_555
H13_2 C25_2 1_555 1_555
H14_2 C25_2 1_555 1_555
C26_2 C21_2 1_555 1_555
H15_2 C26_2 1_555 1_555
C31_2 C26_2 1_555 1_555
H25_2 C31_2 1_555 1_555
O10_2 In1_2 1_555 1_555
O13_2 In1_2 1_555 1_555
O7_2 C19_2 1_555 1_555
C22_2 C23_2 1_555 1_555
O3_2 C9_2 1_555 1_555
O4_2 C12_2 1_555 1_555
O5_2 C9_2 1_555 1_555
C7_2 C9_2 1_555 1_555
C12_2 C18_2 1_555 1_555
C16_2 C7_2 1_555 1_555
H5_2 C16_2 1_555 1_555
C17_2 C7_2 1_555 1_555
H6_2 C17_2 1_555 1_555
C18_2 C16_2 1_555 1_555
H7_2 C18_2 1_555 1_555
C20_2 O4_2 1_555 1_555
H8_2 C20_2 1_555 1_555
H9_2 C20_2 1_555 1_555
C24_2 C12_2 1_555 1_555
H12_2 C24_2 1_555 1_555
H19_2 C29_2 1_555 1_555
H20_2 C29_2 1_555 1_555
In2 O3_2 1_555 1_555
O5_2 In2 1_555 1_555
C17_2 C24_2 1_555 1_555
In2 Cl1_3 1_555 1_555
O4_3 C12_3 1_555 1_555
O6_3 In2 1_555 1_555
O7_3 In2 1_555 1_555
O8_3 C13_3 1_555 1_555
O9_3 C25_3 1_555 1_555
C1_3 H1_3 1_555 1_555
C3_3 C6_3 1_555 1_555
C6_3 C10_3 1_555 1_555
C8_3 C3_3 1_555 1_555
C10_3 C11_3 1_555 1_555
C11_3 C15_3 1_555 1_555
C13_3 C3_3 1_555 1_555
H3_3 C13_3 1_555 1_555
H4_3 C13_3 1_555 1_555
C15_3 C8_3 1_555 1_555
C19_3 O6_3 1_555 1_555
C20_3 O4_3 1_555 1_555
H9_3 C20_3 1_555 1_555
C21_3 C19_3 1_555 1_555
C24_3 C12_3 1_555 1_555
H12_3 C24_3 1_555 1_555
C25_3 C15_3 1_555 1_555
H13_3 C25_3 1_555 1_555
H14_3 C25_3 1_555 1_555
C26_3 C21_3 1_555 1_555
H15_3 C26_3 1_555 1_555
C27_3 C8_3 1_555 1_555
H16_3 C27_3 1_555 1_555
H17_3 C27_3 1_555 1_555
H18_3 C27_3 1_555 1_555
C28_3 O9_3 1_555 1_555
C29_3 C11_3 1_555 1_555
H19_3 C29_3 1_555 1_555
H20_3 C29_3 1_555 1_555
H21_2 C29_3 1_555 1_555
C31_3 C26_3 1_555 1_555
H25_3 C31_3 1_555 1_555
C32_3 C21_3 1_555 1_555
H26_3 C32_3 1_555 1_555
C33_3 C28_3 1_555 1_555
H27_3 C33_3 1_555 1_555
O7_3 C19_3 1_555 1_555
C10_3 C20_3 1_555 1_555
C28_3 C31_3 1_555 1_555
C32_3 C33_3 1_555 1_555
O10 C4_3 1_555 1_555
O11 C4_3 1_555 1_555
O12_2 C9_3 1_555 1_555
H2_3 C2_3 1_555 1_555
C4_3 C5_3 1_555 1_555
C5_3 C2_3 1_555 1_555
C7_3 C9_3 1_555 1_555
C16_3 C7_3 1_555 1_555
H5_3 C16_3 1_555 1_555
C17_3 C7_3 1_555 1_555
C18_3 C16_3 1_555 1_555
H7_3 C18_3 1_555 1_555
C22_3 C14_3 1_555 1_555
H10_3 C22_3 1_555 1_555
C23_3 C5_3 1_555 1_555
H11_3 C23_3 1_555 1_555
H22_3 C30_3 1_555 1_555
H23_3 C30_3 1_555 1_555
H24_3 C30_3 1_555 1_555
C22_3 C23_3 1_555 1_555
In3 Cl1_4 1_555 1_555
O7_4 In3 1_555 1_555
C21_4 C19_4 1_555 1_555
H13_4 C25_4 1_555 1_555
H14_4 C25_4 1_555 1_555
C26_4 C21_4 1_555 1_555
H15_4 C26_4 1_555 1_555
C31_4 C26_4 1_555 1_555
H25_4 C31_4 1_555 1_555
O7_4 C19_4 1_555 1_555
H10_4 C22_4 1_555 1_555
H11_4 C23_4 1_555 1_555
C22_4 C23_4 1_555 1_555
O8_4 C13_4 1_555 1_555
C1_4 H1_4 1_555 1_555
C3_4 C6_4 1_555 1_555
C6_4 C10_4 1_555 1_555
C8_4 C3_4 1_555 1_555
C10_4 C11_4 1_555 1_555
C11_4 C15_4 1_555 1_555
C13_4 C3_4 1_555 1_555
H3_4 C13_4 1_555 1_555
H4_4 C13_4 1_555 1_555
C15_4 C8_4 1_555 1_555
C27_4 C8_4 1_555 1_555
H16_4 C27_4 1_555 1_555
H18_4 C27_4 1_555 1_555
C28_4 O9_4 1_555 1_555
H26_4 C32_4 1_555 1_555
C33_4 C28_4 1_555 1_555
H27_4 C33_4 1_555 1_555
C32_4 C33_4 1_555 1_555
O10_2 C4_4 1_555 1_555
H2_4 C2_4 1_555 1_555
C4_4 C5_4 1_555 1_555
C5_4 C2_4 1_555 1_555
H22_4 C30_4 1_555 1_555
H23_4 C30_4 1_555 1_555
H24_4 C30_4 1_555 1_555
O12 C9_4 1_555 1_555
O13 C9_4 1_555 1_555
C7_4 C9_4 1_555 1_555
C16_4 C7_4 1_555 1_555
H5_4 C16_4 1_555 1_555
C17_4 C7_4 1_555 1_555
C18_4 C16_4 1_555 1_555
H7_4 C18_4 1_555 1_555
O5_3 In3_2 1_555 1_555
O1_3 C4_5 1_555 1_555
O2_3 C4_5 1_555 1_555
O3_3 C9_5 1_555 1_555
H2_5 C2_5 1_555 1_555
C4_5 C5_5 1_555 1_555
C5_5 C2_5 1_555 1_555
C7_5 C9_5 1_555 1_555
C16_5 C7_5 1_555 1_555
H5_5 C16_5 1_555 1_555
C17_5 C7_5 1_555 1_555
C18_5 C16_5 1_555 1_555
H7_5 C18_5 1_555 1_555
C22_5 C14_5 1_555 1_555
H10_5 C22_5 1_555 1_555
C23_5 C5_5 1_555 1_555
H11_5 C23_5 1_555 1_555
H22_5 C30_5 1_555 1_555
H23_5 C30_5 1_555 1_555
H24_5 C30_5 1_555 1_555
In2_2 O1_3 1_555 1_555
O2_3 In2_2 1_555 1_555
C22_5 C23_5 1_555 1_555
In1_3 Cl1_5 1_555 1_555
O4_4 C12_4 1_555 1_555
O6_5 In1_3 1_555 1_555
O7_5 In1_3 1_555 1_555
O8_5 C13_5 1_555 1_555
O9_5 C25_5 1_555 1_555
C1_5 H1_5 1_555 1_555
C3_5 C6_5 1_555 1_555
C6_5 C10_5 1_555 1_555
C8_5 C3_5 1_555 1_555
C10_5 C11_5 1_555 1_555
C11_5 C15_5 1_555 1_555
C13_5 C3_5 1_555 1_555
H3_5 C13_5 1_555 1_555
H4_5 C13_5 1_555 1_555
C15_5 C8_5 1_555 1_555
C19_5 O6_5 1_555 1_555
C20_4 O4_4 1_555 1_555
H9_4 C20_4 1_555 1_555
C21_5 C19_5 1_555 1_555
C24_4 C12_4 1_555 1_555
H12_4 C24_4 1_555 1_555
C25_5 C15_5 1_555 1_555
H13_5 C25_5 1_555 1_555
H14_5 C25_5 1_555 1_555
C26_5 C21_5 1_555 1_555
H15_5 C26_5 1_555 1_555
C27_5 C8_5 1_555 1_555
H16_5 C27_5 1_555 1_555
H17_5 C27_5 1_555 1_555
H18_5 C27_5 1_555 1_555
C28_5 O9_5 1_555 1_555
C29_4 C11_5 1_555 1_555
H19_4 C29_4 1_555 1_555
H20_4 C29_4 1_555 1_555
H21_3 C29_4 1_555 1_555
C31_5 C26_5 1_555 1_555
H25_5 C31_5 1_555 1_555
C32_5 C21_5 1_555 1_555
H26_5 C32_5 1_555 1_555
C33_5 C28_5 1_555 1_555
H27_5 C33_5 1_555 1_555
O10_3 In1_3 1_555 1_555
O11_3 In1_3 1_555 1_555
O12_3 In1_3 1_555 1_555
O13_3 In1_3 1_555 1_555
O7_5 C19_5 1_555 1_555
C10_5 C20_4 1_555 1_555
C28_5 C31_5 1_555 1_555
C32_5 C33_5 1_555 1_555
O3_4 C9_6 1_555 1_555
O5_4 C9_6 1_555 1_555
C7_6 C9_6 1_555 1_555
C16_6 C7_6 1_555 1_555
H5_6 C16_6 1_555 1_555
C17_6 C7_6 1_555 1_555
C18_6 C16_6 1_555 1_555
H7_6 C18_6 1_555 1_555
In2_2 O3_4 1_555 1_555
O5_4 In2_2 1_555 1_555
O1_4 C4_6 1_555 1_555
H2_6 C2_6 1_555 1_555
C4_6 C5_6 1_555 1_555
C5_6 C2_6 1_555 1_555
H22_6 C30_6 1_555 1_555
H23_6 C30_6 1_555 1_555
H24_6 C30_6 1_555 1_555
In3_2 O1_4 1_555 1_555
O8_6 C13_6 1_555 1_555
C1_6 H1_6 1_555 1_555
C3_6 C6_6 1_555 1_555
C6_6 C10_6 1_555 1_555
C8_6 C3_6 1_555 1_555
C10_6 C11_6 1_555 1_555
C11_6 C15_6 1_555 1_555
C13_6 C3_6 1_555 1_555
H3_6 C13_6 1_555 1_555
H4_6 C13_6 1_555 1_555
C15_6 C8_6 1_555 1_555
C27_6 C8_6 1_555 1_555
H16_6 C27_6 1_555 1_555
H18_6 C27_6 1_555 1_555
C28_6 O9_6 1_555 1_555
H26_6 C32_6 1_555 1_555
C33_6 C28_6 1_555 1_555
H27_6 C33_6 1_555 1_555
C32_6 C33_6 1_555 1_555
H10_6 C22_6 1_555 1_555
H11_6 C23_6 1_555 1_555
C22_6 C23_6 1_555 1_555
In1_4 Cl1_6 1_555 1_555
O7_6 In1_4 1_555 1_555
C21_6 C19_6 1_555 1_555
H13_6 C25_6 1_555 1_555
H14_6 C25_6 1_555 1_555
C26_6 C21_6 1_555 1_555
H15_6 C26_6 1_555 1_555
C31_6 C26_6 1_555 1_555
H25_6 C31_6 1_555 1_555
O10_4 In1_4 1_555 1_555
O13_4 In1_4 1_555 1_555
O7_6 C19_6 1_555 1_555
In2_2 Cl1_7 1_555 1_555
O10_3 C4_7 1_555 1_555
O11_3 C4_7 1_555 1_555
O12_4 C9_7 1_555 1_555
O4_5 C12_5 1_555 1_555
O6_7 In2_2 1_555 1_555
O7_7 In2_2 1_555 1_555
O8_7 C13_7 1_555 1_555
O9_7 C25_7 1_555 1_555
C1_7 H1_7 1_555 1_555
C2_7 C1_7 1_555 1_555
H2_7 C2_7 1_555 1_555
C3_7 C6_7 1_555 1_555
C4_7 C5_7 1_555 1_555
C5_7 C2_7 1_555 1_555
C6_7 C10_7 1_555 1_555
C7_7 C9_7 1_555 1_555
C8_7 C3_7 1_555 1_555
C10_7 C11_7 1_555 1_555
C11_7 C15_7 1_555 1_555
C12_5 C18_7 1_555 1_555
C13_7 C3_7 1_555 1_555
H3_7 C13_7 1_555 1_555
H4_7 C13_7 1_555 1_555
C14_7 O8_7 1_555 1_555
C15_7 C8_7 1_555 1_555
C16_7 C7_7 1_555 1_555
H5_7 C16_7 1_555 1_555
C17_7 C7_7 1_555 1_555
C18_7 C16_7 1_555 1_555
H7_7 C18_7 1_555 1_555
C19_7 O6_7 1_555 1_555
C20_5 O4_5 1_555 1_555
H8_7 C20_5 1_555 1_555
H9_5 C20_5 1_555 1_555
C21_7 C19_7 1_555 1_555
C22_7 C14_7 1_555 1_555
H10_7 C22_7 1_555 1_555
C23_7 C5_7 1_555 1_555
H11_7 C23_7 1_555 1_555
C24_5 C12_5 1_555 1_555
H12_5 C24_5 1_555 1_555
C25_7 C15_7 1_555 1_555
H13_7 C25_7 1_555 1_555
H14_7 C25_7 1_555 1_555
C26_7 C21_7 1_555 1_555
H15_7 C26_7 1_555 1_555
C27_7 C8_7 1_555 1_555
H16_7 C27_7 1_555 1_555
H17_7 C27_7 1_555 1_555
H18_7 C27_7 1_555 1_555
C28_7 O9_7 1_555 1_555
C29_5 C11_7 1_555 1_555
H19_5 C29_5 1_555 1_555
H20_5 C29_5 1_555 1_555
H21_4 C29_5 1_555 1_555
C30_7 C6_7 1_555 1_555
H22_7 C30_7 1_555 1_555
H23_7 C30_7 1_555 1_555
H24_7 C30_7 1_555 1_555
C31_7 C26_7 1_555 1_555
H25_7 C31_7 1_555 1_555
C32_7 C21_7 1_555 1_555
H26_7 C32_7 1_555 1_555
C33_7 C28_7 1_555 1_555
H27_7 C33_7 1_555 1_555
O7_7 C19_7 1_555 1_555
C1_7 C14_7 1_555 1_555
C10_7 C20_5 1_555 1_555
C17_7 C24_5 1_555 1_555
C22_7 C23_7 1_555 1_555
C28_7 C31_7 1_555 1_555
C32_7 C33_7 1_555 1_555
O12_3 C9_8 1_555 1_555
O4_6 C12_6 1_555 1_555
O13_3 C9_8 1_555 1_555
C7_8 C9_8 1_555 1_555
C12_6 C18_8 1_555 1_555
C16_8 C7_8 1_555 1_555
H5_8 C16_8 1_555 1_555
C17_8 C7_8 1_555 1_555
H6_4 C17_8 1_555 1_555
C18_8 C16_8 1_555 1_555
H7_8 C18_8 1_555 1_555
C20_6 O4_6 1_555 1_555
H8_8 C20_6 1_555 1_555
H9_6 C20_6 1_555 1_555
C24_6 C12_6 1_555 1_555
H12_6 C24_6 1_555 1_555
H19_6 C29_6 1_555 1_555
H20_6 C29_6 1_555 1_555
C17_8 C24_6 1_555 1_555
In3_2 Cl1_8 1_555 1_555
O7_8 In3_2 1_555 1_555
C21_8 C19_8 1_555 1_555
H10_8 C22_8 1_555 1_555
H11_8 C23_8 1_555 1_555
H13_8 C25_8 1_555 1_555
H14_8 C25_8 1_555 1_555
C26_8 C21_8 1_555 1_555
H15_8 C26_8 1_555 1_555
C31_8 C26_8 1_555 1_555
H25_8 C31_8 1_555 1_555
O7_8 C19_8 1_555 1_555
C22_8 C23_8 1_555 1_555
O10_4 C4_8 1_555 1_555
O8_8 C13_8 1_555 1_555
C1_8 H1_8 1_555 1_555
C2_8 C1_8 1_555 1_555
H2_8 C2_8 1_555 1_555
C3_8 C6_8 1_555 1_555
C4_8 C5_8 1_555 1_555
C5_8 C2_8 1_555 1_555
C6_8 C10_8 1_555 1_555
C8_8 C3_8 1_555 1_555
C10_8 C11_8 1_555 1_555
C11_8 C15_8 1_555 1_555
C13_8 C3_8 1_555 1_555
H3_8 C13_8 1_555 1_555
H4_8 C13_8 1_555 1_555
C14_8 O8_8 1_555 1_555
C15_8 C8_8 1_555 1_555
C27_8 C8_8 1_555 1_555
H16_8 C27_8 1_555 1_555
H18_8 C27_8 1_555 1_555
C28_8 O9_8 1_555 1_555
C30_8 C6_8 1_555 1_555
H22_8 C30_8 1_555 1_555
H23_8 C30_8 1_555 1_555
H24_8 C30_8 1_555 1_555
H26_8 C32_8 1_555 1_555
C33_8 C28_8 1_555 1_555
H27_8 C33_8 1_555 1_555
C1_8 C14_8 1_555 1_555
C32_8 C33_8 1_555 1_555
O4_7 C12_7 1_555 1_555
C20_7 O4_7 1_555 1_555
H9_7 C20_7 1_555 1_555
C24_7 C12_7 1_555 1_555
H12_7 C24_7 1_555 1_555
H19_7 C29_7 1_555 1_555
H20_7 C29_7 1_555 1_555
O4_8 C12_8 1_555 1_555
C20_8 O4_8 1_555 1_555
H9_8 C20_8 1_555 1_555
C24_8 C12_8 1_555 1_555
H12_8 C24_8 1_555 1_555
H19_8 C29_8 1_555 1_555
H20_8 C29_8 1_555 1_555

#END
