
###############################################################################
#
# This file contains modified crystal structure data generated from the
# MOF subset of the Cambridge Structural Database (CSD) v542 
# hosted by the Cambridge Crystallographic Data Centre (CCDC).
#
# This work is licensed under the Creative Commons
# Attribution-NonCommercial-ShareAlike 4.0 International License.
# To view a copy of this license, visit
# http://creativecommons.org/licenses/by-nc-sa/4.0/
# or send a letter to
# Creative Commons, PO Box 1866, Mountain View, CA 94042, USA.
#
# CIF created using the CSD Python API on 22 February 2021
# The structure has been converted into the P1 space group
# The structure has a 3D framework
# The original CSD entry WIMBIG is in the monoclinic crystal system
# The framework has been calculated to contain at least 10.0% void space
# The void calculation uses a probe of radius 1.32A, grid spacing 0.4
# H atom positions have been added when not included in the experimental data
#
###############################################################################

data_WIMBIG
_chemical_formula_moiety         '(C256 H192 Ca10 N8 O58)n'
_symmetry_cell_setting           triclinic
_symmetry_space_group_name_H-M   'P 1'
_symmetry_Int_Tables_number      1
_space_group_name_Hall           'P 1'
loop_
_symmetry_equiv_pos_site_id
_symmetry_equiv_pos_as_xyz
1 x,y,z
_cell_length_a                   9.8508(4)
_cell_length_b                   30.192(2)
_cell_length_c                   29.1803(18)
_cell_angle_alpha                90
_cell_angle_beta                 96.013(4)
_cell_angle_gamma                90
_cell_volume                     8630.92
loop_
_atom_site_label
_atom_site_type_symbol
_atom_site_fract_x
_atom_site_fract_y
_atom_site_fract_z
O4 O 0.0426(2) 0.53017(8) 0.31086(8)
H15 H 0.046026 0.480855 0.384128
Ca5 Ca 0.000000 0.58929(2) 0.250000
Ca7 Ca 0.000000 0.41071(2) 0.750000
Ca1 Ca 0.500000 0.08929(2) 0.250000
Ca2 Ca 0.65888(5) 0.59645(2) 0.28697(2)
O1 O 0.82922(19) 0.54238(6) 0.28616(7)
O2 O 0.77770(18) 0.39218(7) 0.71507(6)
O3 O 0.56241(17) 0.37433(7) 0.70861(6)
O5 O 0.4145(2) 0.13761(8) 0.30252(9)
O6 O 0.500000 0.53999(10) 0.250000
O7 O 0.2270(2) 0.16130(9) 0.32740(10)
O8 O 0.6345(3) 0.56592(10) 0.35804(8)
C1 C 0.6787(3) 0.37095(9) 0.64096(9)
C2 C 0.6734(2) 0.37986(8) 0.69097(9)
C3 C 0.9203(3) 0.52103(9) 0.31041(10)
C4 C 0.6893(3) 0.35566(10) 0.54684(10)
C5 C 0.5687(3) 0.35164(10) 0.61449(9)
H1 H 0.491329 0.343524 0.628208
C6 C 0.6915(3) 0.34978(10) 0.49660(10)
C7 C 0.5663(3) 0.26821(10) 0.40216(10)
C8 C 0.4295(3) 0.19963(9) 0.35253(10)
C9 C 0.6319(3) 0.30721(10) 0.42660(10)
C10 C 0.6355(3) 0.31213(10) 0.47402(10)
H2 H 0.599824 0.289834 0.491182
C11 C 0.3523(3) 0.16355(10) 0.32533(11)
C12 C 0.7935(3) 0.38224(10) 0.62003(10)
H3 H 0.868110 0.394913 0.637405
C13 C 0.7982(3) 0.37484(11) 0.57357(10)
H4 H 0.875848 0.382858 0.559956
C14 C 0.7909(3) 0.41515(10) 0.39408(10)
C15 C 0.8760(3) 0.48417(9) 0.34002(10)
C16 C 0.5539(3) 0.21424(10) 0.34101(11)
H5 H 0.593137 0.201063 0.316776
C17 C 0.5737(3) 0.34446(10) 0.56805(10)
H6 H 0.498866 0.331974 0.550627
C18 C 0.7417(3) 0.37882(10) 0.42264(10)
C19 C 0.6843(3) 0.34078(10) 0.40145(10)
H7 H 0.681288 0.337939 0.369627
C20 C 0.7464(3) 0.38233(10) 0.47001(10)
H8 H 0.787398 0.407059 0.484566
C21 C 0.6203(3) 0.24839(11) 0.36537(11)
H9 H 0.703377 0.258351 0.356867
C22 C 0.9171(4) 0.43505(11) 0.40453(11)
H10 H 0.973727 0.425695 0.430202
C23 C 0.7085(3) 0.43062(11) 0.35623(11)
H11 H 0.623756 0.417577 0.348305
C24 C 0.7501(3) 0.46523(10) 0.32995(11)
H12 H 0.691975 0.475745 0.305168
C25 C 0.3759(3) 0.21802(11) 0.39020(12)
H13 H 0.293705 0.207591 0.399044
C26 C 0.4442(4) 0.25173(11) 0.41454(12)
H14 H 0.407443 0.263723 0.439884
C27 C 0.9597(4) 0.46861(11) 0.37724(12)
C28 C 0.6829(6) 0.56001(16) 0.39745(16)
N1 N 0.6386(8) 0.53831(19) 0.42910(15)
C29 C 0.8209(7) 0.5807(2) 0.41884(19)
H16 H 0.892463 0.575384 0.399031
H17 H 0.811519 0.612343 0.422990
C30 C 0.7167(11) 0.5364(3) 0.4727(2)
H18 H 0.731054 0.505971 0.482887
H19 H 0.672659 0.552583 0.495770
C31 C 0.8529(12) 0.5586(3) 0.4635(3)
H20 H 0.882146 0.579828 0.487387
H21 H 0.924217 0.536611 0.461871
C32 C 0.5010(9) 0.5182(3) 0.4214(3)
H22 H 0.441920 0.532081 0.441298
H23 H 0.507172 0.487091 0.428133
H24 H 0.464810 0.522387 0.389890
Ca3 Ca 0.34112(5) 0.59645(2) 0.21303(2)
O9 O 0.17078(19) 0.54238(6) 0.21384(7)
O13 O 0.5855(2) 0.13761(8) 0.19748(9)
O14 O 0.7730(2) 0.16130(9) 0.17260(10)
O15 O 0.3655(3) 0.56592(10) 0.14196(8)
C35 C 0.0797(3) 0.52103(9) 0.18959(10)
C38 C 0.3085(3) 0.34978(10) 0.00340(10)
C39 C 0.4337(3) 0.26821(10) 0.09784(10)
C40 C 0.5705(3) 0.19963(9) 0.14747(10)
C41 C 0.3681(3) 0.30721(10) 0.07340(10)
C42 C 0.3645(3) 0.31213(10) 0.02598(10)
H26 H 0.400176 0.289834 0.008818
C43 C 0.6477(3) 0.16355(10) 0.17467(11)
C46 C 0.2091(3) 0.41515(10) 0.10592(10)
C47 C 0.1240(3) 0.48417(9) 0.15998(10)
C48 C 0.4461(3) 0.21424(10) 0.15899(11)
H29 H 0.406863 0.201063 0.183224
C50 C 0.2583(3) 0.37882(10) 0.07736(10)
C51 C 0.3157(3) 0.34078(10) 0.09855(10)
H31 H 0.318712 0.337939 0.130373
C52 C 0.2536(3) 0.38233(10) 0.02999(10)
H32 H 0.212602 0.407059 0.015434
C53 C 0.3797(3) 0.24839(11) 0.13463(11)
H33 H 0.296623 0.258351 0.143133
C54 C 0.0829(4) 0.43505(11) 0.09547(11)
H34 H 0.026273 0.425695 0.069798
C55 C 0.2915(3) 0.43062(11) 0.14377(11)
H35 H 0.376244 0.417577 0.151695
C56 C 0.2499(3) 0.46523(10) 0.17005(11)
H36 H 0.308025 0.475745 0.194832
C57 C 0.6241(3) 0.21802(11) 0.10980(12)
H37 H 0.706295 0.207591 0.100956
C58 C 0.5558(4) 0.25173(11) 0.08546(12)
H38 H 0.592557 0.263723 0.060116
C59 C 0.0403(4) 0.46861(11) 0.12276(12)
C60 C 0.3171(6) 0.56001(16) 0.10255(16)
N2 N 0.3614(8) 0.53831(19) 0.07090(15)
C61 C 0.1791(7) 0.5807(2) 0.08116(19)
H40 H 0.107537 0.575384 0.100969
H41 H 0.188481 0.612343 0.077010
C62 C 0.2833(11) 0.5364(3) 0.0273(2)
H42 H 0.268946 0.505971 0.017113
H43 H 0.327341 0.552583 0.004230
C63 C 0.1471(12) 0.5586(3) 0.0365(3)
H44 H 0.117854 0.579828 0.012613
H45 H 0.075783 0.536611 0.038129
C64 C 0.4990(9) 0.5182(3) 0.0786(3)
H46 H 0.558080 0.532081 0.058702
H47 H 0.492828 0.487091 0.071867
H48 H 0.535190 0.522387 0.110110
Ca5_2 Ca 1.000000 0.58929(2) 0.250000
Ca7_2 Ca 1.000000 0.41071(2) 0.750000
Ca8 Ca 0.15888(5) 0.09645(2) 0.28697(2)
Ca9 Ca 0.84112(5) 0.09645(2) 0.21303(2)
Ca11 Ca 0.34112(5) 0.40355(2) 0.71303(2)
Ca13 Ca 0.65888(5) 0.40355(2) 0.78697(2)
O16 O 0.32922(19) 0.04238(6) 0.28616(7)
O17 O 0.67078(19) 0.04238(6) 0.21384(7)
O18 O 0.22230(18) 0.60782(7) 0.28493(6)
O19 O 0.77770(18) 0.60782(7) 0.21507(6)
O20 O 0.72230(18) 0.10782(7) 0.28493(6)
O21 O 0.27770(18) 0.10782(7) 0.21507(6)
O22 O 0.43759(17) 0.62567(7) 0.29139(6)
O23 O 0.56241(17) 0.62567(7) 0.20861(6)
O24 O 0.5426(2) 0.03017(8) 0.31086(8)
O25 O 0.4574(2) 0.03017(8) 0.18914(8)
O26 O 0.9145(2) 0.63761(8) 0.30252(9)
O27 O 0.0855(2) 0.63761(8) 0.19748(9)
O28 O 0.7270(2) 0.66130(9) 0.32740(10)
O29 O 0.2730(2) 0.66130(9) 0.17260(10)
O10 O 0.22230(18) 0.39218(7) 0.78493(6)
O11 O 0.43759(17) 0.37433(7) 0.79139(6)
C33 C 0.3213(3) 0.37095(9) 0.85904(9)
C34 C 0.3266(2) 0.37986(8) 0.80903(9)
C36 C 0.3107(3) 0.35566(10) 0.95316(10)
C37 C 0.4313(3) 0.35164(10) 0.88551(9)
H25 H 0.508671 0.343524 0.871792
C44 C 0.2065(3) 0.38224(10) 0.87997(10)
H27 H 0.131890 0.394913 0.862595
C45 C 0.2018(3) 0.37484(11) 0.92643(10)
H28 H 0.124152 0.382858 0.940044
C49 C 0.4263(3) 0.34446(10) 0.93195(10)
H30 H 0.501134 0.331974 0.949373
O12 O 0.9574(2) 0.53017(8) 0.18914(8)
H39 H 0.953974 0.480855 0.115872
O6_2 O 0.000000 0.03999(10) 0.250000
O8_2 O 0.1345(3) 0.06592(10) 0.35804(8)
C3_2 C 0.4203(3) 0.02103(9) 0.31041(10)
C28_2 C 0.1829(6) 0.06001(16) 0.39745(16)
N1_2 N 0.1386(8) 0.03831(19) 0.42910(15)
C29_2 C 0.3209(7) 0.0807(2) 0.41884(19)
H16_2 H 0.392463 0.075384 0.399031
H17_2 H 0.311519 0.112343 0.422990
C30_2 C 0.2167(11) 0.0364(3) 0.4727(2)
H18_2 H 0.231054 0.005971 0.482887
H19_2 H 0.172659 0.052583 0.495770
C31_2 C 0.3529(12) 0.0586(3) 0.4635(3)
H20_2 H 0.382146 0.079828 0.487387
H21_2 H 0.424217 0.036611 0.461871
C32_2 C 0.0010(9) 0.0182(3) 0.4214(3)
H46_2 H 0.058080 0.032081 0.058702
H48_2 H 0.035190 0.022387 0.110110
O23_2 O 0.06241(17) 0.12567(7) 0.20861(6)
O2_2 O 0.27770(18) 0.89218(7) 0.71507(6)
O3_2 O 0.06241(17) 0.87433(7) 0.70861(6)
C1_2 C 0.1787(3) 0.87095(9) 0.64096(9)
C2_2 C 0.1734(2) 0.87986(8) 0.69097(9)
C4_2 C 0.1893(3) 0.85566(10) 0.54684(10)
C5_2 C 0.0687(3) 0.85164(10) 0.61449(9)
C6_2 C 0.1915(3) 0.84978(10) 0.49660(10)
C7_2 C 0.0663(3) 0.76821(10) 0.40216(10)
C9_2 C 0.1319(3) 0.80721(10) 0.42660(10)
C10_2 C 0.1355(3) 0.81213(10) 0.47402(10)
H2_2 H 0.099824 0.789834 0.491182
C12_2 C 0.2935(3) 0.88224(10) 0.62003(10)
H3_2 H 0.368110 0.894913 0.637405
C13_2 C 0.2982(3) 0.87484(11) 0.57357(10)
H4_2 H 0.375848 0.882858 0.559956
C14_2 C 0.2909(3) 0.91515(10) 0.39408(10)
C15_2 C 0.3760(3) 0.98417(9) 0.34002(10)
C16_2 C 0.0539(3) 0.71424(10) 0.34101(11)
H5_2 H 0.093137 0.701063 0.316776
C17_2 C 0.0737(3) 0.84446(10) 0.56805(10)
C18_2 C 0.2417(3) 0.87882(10) 0.42264(10)
C19_2 C 0.1843(3) 0.84078(10) 0.40145(10)
H7_2 H 0.181288 0.837939 0.369627
C20_2 C 0.2464(3) 0.88233(10) 0.47001(10)
H8_2 H 0.287398 0.907059 0.484566
C21_2 C 0.1203(3) 0.74839(11) 0.36537(11)
H9_2 H 0.203377 0.758351 0.356867
C22_2 C 0.4171(4) 0.93505(11) 0.40453(11)
H10_2 H 0.473727 0.925695 0.430202
C23_2 C 0.2085(3) 0.93062(11) 0.35623(11)
H11_2 H 0.123756 0.917577 0.348305
C24_2 C 0.2501(3) 0.96523(10) 0.32995(11)
H12_2 H 0.191975 0.975745 0.305168
C27_2 C 0.4597(4) 0.96861(11) 0.37724(12)
H15_2 H 0.546026 0.980855 0.384128
H23_2 H 0.007172 0.987091 0.428133
C40_2 C 0.0705(3) 0.69963(9) 0.14747(10)
C43_2 C 0.1477(3) 0.66355(10) 0.17467(11)
C57_2 C 0.1241(3) 0.71802(11) 0.10980(12)
H37_2 H 0.206295 0.707591 0.100956
C58_2 C 0.0558(4) 0.75173(11) 0.08546(12)
H38_2 H 0.092557 0.763723 0.060116
Ca7_3 Ca 0.500000 0.91071(2) 0.750000
Ca13_2 Ca 0.15888(5) 0.90355(2) 0.78697(2)
H25_2 H 0.008671 0.843524 0.871792
H30_2 H 0.001134 0.831974 0.949373
O6_3 O 1.000000 0.03999(10) 0.250000
H22_2 H 0.941920 0.032081 0.441298
H24_2 H 0.964810 0.022387 0.389890
O15_2 O 0.8655(3) 0.06592(10) 0.14196(8)
C35_2 C 0.5797(3) 0.02103(9) 0.18959(10)
C60_2 C 0.8171(6) 0.06001(16) 0.10255(16)
N2_2 N 0.8614(8) 0.03831(19) 0.07090(15)
C61_2 C 0.6791(7) 0.0807(2) 0.08116(19)
H40_2 H 0.607537 0.075384 0.100969
H41_2 H 0.688481 0.112343 0.077010
C62_2 C 0.7833(11) 0.0364(3) 0.0273(2)
H42_2 H 0.768946 0.005971 0.017113
H43_2 H 0.827341 0.052583 0.004230
C63_2 C 0.6471(12) 0.0586(3) 0.0365(3)
H44_2 H 0.617854 0.079828 0.012613
H45_2 H 0.575783 0.036611 0.038129
C64_2 C 0.9990(9) 0.0182(3) 0.0786(3)
O22_2 O 0.93759(17) 0.12567(7) 0.29139(6)
H1_2 H 0.991329 0.843524 0.628208
C8_2 C 0.9295(3) 0.69963(9) 0.35253(10)
C11_2 C 0.8523(3) 0.66355(10) 0.32533(11)
H6_2 H 0.998866 0.831974 0.550627
C25_2 C 0.8759(3) 0.71802(11) 0.39020(12)
H13_2 H 0.793705 0.707591 0.399044
C26_2 C 0.9442(4) 0.75173(11) 0.41454(12)
H14_2 H 0.907443 0.763723 0.439884
C38_2 C 0.8085(3) 0.84978(10) 0.00340(10)
C39_2 C 0.9337(3) 0.76821(10) 0.09784(10)
C41_2 C 0.8681(3) 0.80721(10) 0.07340(10)
C42_2 C 0.8645(3) 0.81213(10) 0.02598(10)
H26_2 H 0.900176 0.789834 0.008818
C46_2 C 0.7091(3) 0.91515(10) 0.10592(10)
C47_2 C 0.6240(3) 0.98417(9) 0.15998(10)
C48_2 C 0.9461(3) 0.71424(10) 0.15899(11)
H29_2 H 0.906863 0.701063 0.183224
C50_2 C 0.7583(3) 0.87882(10) 0.07736(10)
C51_2 C 0.8157(3) 0.84078(10) 0.09855(10)
H31_2 H 0.818712 0.837939 0.130373
C52_2 C 0.7536(3) 0.88233(10) 0.02999(10)
H32_2 H 0.712602 0.907059 0.015434
C53_2 C 0.8797(3) 0.74839(11) 0.13463(11)
H33_2 H 0.796623 0.758351 0.143133
C54_2 C 0.5829(4) 0.93505(11) 0.09547(11)
H34_2 H 0.526273 0.925695 0.069798
C55_2 C 0.7915(3) 0.93062(11) 0.14377(11)
H35_2 H 0.876244 0.917577 0.151695
C56_2 C 0.7499(3) 0.96523(10) 0.17005(11)
H36_2 H 0.808025 0.975745 0.194832
C59_2 C 0.5403(4) 0.96861(11) 0.12276(12)
H39_2 H 0.453974 0.980855 0.115872
H47_2 H 0.992828 0.987091 0.071867
Ca11_2 Ca 0.84112(5) 0.90355(2) 0.71303(2)
O10_2 O 0.72230(18) 0.89218(7) 0.78493(6)
O11_2 O 0.93759(17) 0.87433(7) 0.79139(6)
C33_2 C 0.8213(3) 0.87095(9) 0.85904(9)
C34_2 C 0.8266(2) 0.87986(8) 0.80903(9)
C36_2 C 0.8107(3) 0.85566(10) 0.95316(10)
C37_2 C 0.9313(3) 0.85164(10) 0.88551(9)
C44_2 C 0.7065(3) 0.88224(10) 0.87997(10)
H27_2 H 0.631890 0.894913 0.862595
C45_2 C 0.7018(3) 0.87484(11) 0.92643(10)
H28_2 H 0.624152 0.882858 0.940044
C49_2 C 0.9263(3) 0.84446(10) 0.93195(10)
O12_2 O 0.0426(2) 0.46983(8) 0.81086(8)
H39_3 H 0.046026 0.519145 0.884128
C33_3 C 0.6787(3) 0.62905(9) 0.14096(9)
C34_3 C 0.6734(2) 0.62014(8) 0.19097(9)
C36_3 C 0.6893(3) 0.64434(10) 0.04684(10)
C37_3 C 0.5687(3) 0.64836(10) 0.11449(9)
H25_3 H 0.491329 0.656476 0.128208
C44_3 C 0.7935(3) 0.61776(10) 0.12003(10)
H27_3 H 0.868110 0.605087 0.137405
C45_3 C 0.7982(3) 0.62516(11) 0.07357(10)
H28_3 H 0.875848 0.617142 0.059956
C49_3 C 0.5737(3) 0.65554(10) 0.06805(10)
H30_3 H 0.498866 0.668026 0.050627
O1_2 O 0.17078(19) 0.45762(6) 0.71384(7)
O5_2 O 0.5855(2) 0.86239(8) 0.69748(9)
O6_4 O 0.500000 0.46001(10) 0.750000
O7_2 O 0.7730(2) 0.83870(9) 0.67260(10)
O8_3 O 0.3655(3) 0.43408(10) 0.64196(8)
C1_3 C 0.3213(3) 0.62905(9) 0.35904(9)
C2_3 C 0.3266(2) 0.62014(8) 0.30903(9)
C3_3 C 0.0797(3) 0.47897(9) 0.68959(10)
C4_3 C 0.3107(3) 0.64434(10) 0.45316(10)
C5_3 C 0.4313(3) 0.64836(10) 0.38551(9)
H1_3 H 0.508671 0.656476 0.371792
C6_3 C 0.3085(3) 0.65022(10) 0.50340(10)
C7_3 C 0.4337(3) 0.73179(10) 0.59784(10)
C8_3 C 0.5705(3) 0.80037(9) 0.64747(10)
C9_3 C 0.3681(3) 0.69279(10) 0.57340(10)
C10_3 C 0.3645(3) 0.68787(10) 0.52598(10)
H2_3 H 0.400176 0.710166 0.508818
C11_3 C 0.6477(3) 0.83645(10) 0.67467(11)
C12_3 C 0.2065(3) 0.61776(10) 0.37997(10)
H3_3 H 0.131890 0.605087 0.362595
C13_3 C 0.2018(3) 0.62516(11) 0.42643(10)
H4_3 H 0.124152 0.617142 0.440044
C14_3 C 0.2091(3) 0.58485(10) 0.60592(10)
C15_3 C 0.1240(3) 0.51583(9) 0.65998(10)
C16_3 C 0.4461(3) 0.78576(10) 0.65899(11)
H5_3 H 0.406863 0.798937 0.683224
C17_3 C 0.4263(3) 0.65554(10) 0.43195(10)
H6_3 H 0.501134 0.668026 0.449373
C18_3 C 0.2583(3) 0.62118(10) 0.57736(10)
C19_3 C 0.3157(3) 0.65922(10) 0.59855(10)
H7_3 H 0.318712 0.662061 0.630373
C20_3 C 0.2536(3) 0.61767(10) 0.52999(10)
H8_3 H 0.212602 0.592941 0.515434
C21_3 C 0.3797(3) 0.75161(11) 0.63463(11)
H9_3 H 0.296623 0.741649 0.643133
C22_3 C 0.0829(4) 0.56495(11) 0.59547(11)
H10_3 H 0.026273 0.574305 0.569798
C23_3 C 0.2915(3) 0.56938(11) 0.64377(11)
H11_3 H 0.376244 0.582423 0.651695
C24_3 C 0.2499(3) 0.53477(10) 0.67005(11)
H12_3 H 0.308025 0.524255 0.694832
C25_3 C 0.6241(3) 0.78198(11) 0.60980(12)
H13_3 H 0.706295 0.792409 0.600956
C26_3 C 0.5558(4) 0.74827(11) 0.58546(12)
H14_3 H 0.592557 0.736277 0.560116
C27_3 C 0.0403(4) 0.53139(11) 0.62276(12)
C28_3 C 0.3171(6) 0.43999(16) 0.60255(16)
N1_3 N 0.3614(8) 0.46169(19) 0.57090(15)
C29_3 C 0.1791(7) 0.4193(2) 0.58116(19)
H16_3 H 0.107537 0.424616 0.600969
H17_3 H 0.188481 0.387657 0.577010
C30_3 C 0.2833(11) 0.4636(3) 0.5273(2)
H18_3 H 0.268946 0.494029 0.517113
H19_3 H 0.327341 0.447417 0.504230
C31_3 C 0.1471(12) 0.4414(3) 0.5365(3)
H20_3 H 0.117854 0.420172 0.512613
H21_3 H 0.075783 0.463389 0.538129
C32_3 C 0.4990(9) 0.4818(3) 0.5786(3)
H22_3 H 0.558080 0.467919 0.558702
H23_3 H 0.492828 0.512909 0.571867
H24_3 H 0.535190 0.477613 0.610110
O9_2 O 0.82922(19) 0.45762(6) 0.78616(7)
O13_2 O 0.4145(2) 0.86239(8) 0.80252(9)
O14_2 O 0.2270(2) 0.83870(9) 0.82740(10)
O15_3 O 0.6345(3) 0.43408(10) 0.85804(8)
C35_3 C 0.9203(3) 0.47897(9) 0.81041(10)
C38_3 C 0.6915(3) 0.65022(10) 0.99660(10)
C39_3 C 0.5663(3) 0.73179(10) 0.90216(10)
C40_3 C 0.4295(3) 0.80037(9) 0.85253(10)
C41_3 C 0.6319(3) 0.69279(10) 0.92660(10)
C42_3 C 0.6355(3) 0.68787(10) 0.97402(10)
H26_3 H 0.599824 0.710166 0.991182
C43_3 C 0.3523(3) 0.83645(10) 0.82533(11)
C46_3 C 0.7909(3) 0.58485(10) 0.89408(10)
C47_3 C 0.8760(3) 0.51583(9) 0.84002(10)
C48_3 C 0.5539(3) 0.78576(10) 0.84101(11)
H29_3 H 0.593137 0.798937 0.816776
C50_3 C 0.7417(3) 0.62118(10) 0.92264(10)
C51_3 C 0.6843(3) 0.65922(10) 0.90145(10)
H31_3 H 0.681288 0.662061 0.869627
C52_3 C 0.7464(3) 0.61767(10) 0.97001(10)
H32_3 H 0.787398 0.592941 0.984566
C53_3 C 0.6203(3) 0.75161(11) 0.86537(11)
H33_3 H 0.703377 0.741649 0.856867
C54_3 C 0.9171(4) 0.56495(11) 0.90453(11)
H34_3 H 0.973727 0.574305 0.930202
C55_3 C 0.7085(3) 0.56938(11) 0.85623(11)
H35_3 H 0.623756 0.582423 0.848305
C56_3 C 0.7501(3) 0.53477(10) 0.82995(11)
H36_3 H 0.691975 0.524255 0.805168
C57_3 C 0.3759(3) 0.78198(11) 0.89020(12)
H37_3 H 0.293705 0.792409 0.899044
C58_3 C 0.4442(4) 0.74827(11) 0.91454(12)
H38_3 H 0.407443 0.736277 0.939884
C59_3 C 0.9597(4) 0.53139(11) 0.87724(12)
C60_3 C 0.6829(6) 0.43999(16) 0.89745(16)
N2_3 N 0.6386(8) 0.46169(19) 0.92910(15)
C61_3 C 0.8209(7) 0.4193(2) 0.91884(19)
H40_3 H 0.892463 0.424616 0.899031
H41_3 H 0.811519 0.387657 0.922990
C62_3 C 0.7167(11) 0.4636(3) 0.9727(2)
H42_3 H 0.731054 0.494029 0.982887
H43_3 H 0.672659 0.447417 0.995770
C63_3 C 0.8529(12) 0.4414(3) 0.9635(3)
H44_3 H 0.882146 0.420172 0.987387
H45_3 H 0.924217 0.463389 0.961871
C64_3 C 0.5010(9) 0.4818(3) 0.9214(3)
H46_3 H 0.441920 0.467919 0.941298
H47_3 H 0.507172 0.512909 0.928133
H48_3 H 0.464810 0.477613 0.889890
O16_2 O 0.67078(19) 0.95762(6) 0.71384(7)
O17_2 O 0.32922(19) 0.95762(6) 0.78616(7)
O24_2 O 0.4574(2) 0.96983(8) 0.68914(8)
O25_2 O 0.5426(2) 0.96983(8) 0.81086(8)
O26_2 O 0.0855(2) 0.36239(8) 0.69748(9)
O27_2 O 0.9145(2) 0.36239(8) 0.80252(9)
O28_2 O 0.2730(2) 0.33870(9) 0.67260(10)
O29_2 O 0.7270(2) 0.33870(9) 0.82740(10)
O4_2 O 0.9574(2) 0.46983(8) 0.68914(8)
H15_3 H 0.953974 0.519145 0.615872
C33_4 C 0.1787(3) 0.12905(9) 0.14096(9)
C34_4 C 0.1734(2) 0.12014(8) 0.19097(9)
C36_4 C 0.1893(3) 0.14434(10) 0.04684(10)
C37_4 C 0.0687(3) 0.14836(10) 0.11449(9)
C44_4 C 0.2935(3) 0.11776(10) 0.12003(10)
H27_4 H 0.368110 0.105087 0.137405
C45_4 C 0.2982(3) 0.12516(11) 0.07357(10)
H28_4 H 0.375848 0.117142 0.059956
C49_4 C 0.0737(3) 0.15554(10) 0.06805(10)
H1_4 H 0.008671 0.156476 0.371792
C8_4 C 0.0705(3) 0.30037(9) 0.64747(10)
C11_4 C 0.1477(3) 0.33645(10) 0.67467(11)
H6_4 H 0.001134 0.168026 0.449373
C25_4 C 0.1241(3) 0.28198(11) 0.60980(12)
H13_4 H 0.206295 0.292409 0.600956
C26_4 C 0.0558(4) 0.24827(11) 0.58546(12)
H14_4 H 0.092557 0.236277 0.560116
C38_4 C 0.1915(3) 0.15022(10) 0.99660(10)
C39_4 C 0.0663(3) 0.23179(10) 0.90216(10)
C41_4 C 0.1319(3) 0.19279(10) 0.92660(10)
C42_4 C 0.1355(3) 0.18787(10) 0.97402(10)
H26_4 H 0.099824 0.210166 0.991182
C46_4 C 0.2909(3) 0.08485(10) 0.89408(10)
C47_4 C 0.3760(3) 0.01583(9) 0.84002(10)
C48_4 C 0.0539(3) 0.28576(10) 0.84101(11)
H29_4 H 0.093137 0.298937 0.816776
C50_4 C 0.2417(3) 0.12118(10) 0.92264(10)
C51_4 C 0.1843(3) 0.15922(10) 0.90145(10)
H31_4 H 0.181288 0.162061 0.869627
C52_4 C 0.2464(3) 0.11767(10) 0.97001(10)
H32_4 H 0.287398 0.092941 0.984566
C53_4 C 0.1203(3) 0.25161(11) 0.86537(11)
H33_4 H 0.203377 0.241649 0.856867
C54_4 C 0.4171(4) 0.06495(11) 0.90453(11)
H34_4 H 0.473727 0.074305 0.930202
C55_4 C 0.2085(3) 0.06938(11) 0.85623(11)
H35_4 H 0.123756 0.082423 0.848305
C56_4 C 0.2501(3) 0.03477(10) 0.82995(11)
H36_4 H 0.191975 0.024255 0.805168
C59_4 C 0.4597(4) 0.03139(11) 0.87724(12)
H39_4 H 0.546026 0.019145 0.884128
H47_4 H 0.007172 0.012909 0.928133
O6_5 O 0.000000 0.96001(10) 0.750000
H22_4 H 0.058080 0.967919 0.558702
H24_4 H 0.035190 0.977613 0.610110
O15_4 O 0.1345(3) 0.93408(10) 0.85804(8)
C35_4 C 0.4203(3) 0.97897(9) 0.81041(10)
C60_4 C 0.1829(6) 0.93999(16) 0.89745(16)
N2_4 N 0.1386(8) 0.96169(19) 0.92910(15)
C61_4 C 0.3209(7) 0.9193(2) 0.91884(19)
H40_4 H 0.392463 0.924616 0.899031
H41_4 H 0.311519 0.887657 0.922990
C62_4 C 0.2167(11) 0.9636(3) 0.9727(2)
H42_4 H 0.231054 0.994029 0.982887
H43_4 H 0.172659 0.947417 0.995770
C63_4 C 0.3529(12) 0.9414(3) 0.9635(3)
H44_4 H 0.382146 0.920172 0.987387
H45_4 H 0.424217 0.963389 0.961871
C64_4 C 0.0010(9) 0.9818(3) 0.9214(3)
H25_4 H 0.991329 0.156476 0.128208
H30_4 H 0.998866 0.168026 0.050627
C1_4 C 0.8213(3) 0.12905(9) 0.35904(9)
C2_4 C 0.8266(2) 0.12014(8) 0.30903(9)
C4_4 C 0.8107(3) 0.14434(10) 0.45316(10)
C5_4 C 0.9313(3) 0.14836(10) 0.38551(9)
C6_4 C 0.8085(3) 0.15022(10) 0.50340(10)
C7_4 C 0.9337(3) 0.23179(10) 0.59784(10)
C9_4 C 0.8681(3) 0.19279(10) 0.57340(10)
C10_4 C 0.8645(3) 0.18787(10) 0.52598(10)
H2_4 H 0.900176 0.210166 0.508818
C12_4 C 0.7065(3) 0.11776(10) 0.37997(10)
H3_4 H 0.631890 0.105087 0.362595
C13_4 C 0.7018(3) 0.12516(11) 0.42643(10)
H4_4 H 0.624152 0.117142 0.440044
C14_4 C 0.7091(3) 0.08485(10) 0.60592(10)
C15_4 C 0.6240(3) 0.01583(9) 0.65998(10)
C16_4 C 0.9461(3) 0.28576(10) 0.65899(11)
H5_4 H 0.906863 0.298937 0.683224
C17_4 C 0.9263(3) 0.15554(10) 0.43195(10)
C18_4 C 0.7583(3) 0.12118(10) 0.57736(10)
C19_4 C 0.8157(3) 0.15922(10) 0.59855(10)
H7_4 H 0.818712 0.162061 0.630373
C20_4 C 0.7536(3) 0.11767(10) 0.52999(10)
H8_4 H 0.712602 0.092941 0.515434
C21_4 C 0.8797(3) 0.25161(11) 0.63463(11)
H9_4 H 0.796623 0.241649 0.643133
C22_4 C 0.5829(4) 0.06495(11) 0.59547(11)
H10_4 H 0.526273 0.074305 0.569798
C23_4 C 0.7915(3) 0.06938(11) 0.64377(11)
H11_4 H 0.876244 0.082423 0.651695
C24_4 C 0.7499(3) 0.03477(10) 0.67005(11)
H12_4 H 0.808025 0.024255 0.694832
C27_4 C 0.5403(4) 0.03139(11) 0.62276(12)
H15_4 H 0.453974 0.019145 0.615872
H23_4 H 0.992828 0.012909 0.571867
C40_4 C 0.9295(3) 0.30037(9) 0.85253(10)
C43_4 C 0.8523(3) 0.33645(10) 0.82533(11)
C57_4 C 0.8759(3) 0.28198(11) 0.89020(12)
H37_4 H 0.793705 0.292409 0.899044
C58_4 C 0.9442(4) 0.24827(11) 0.91454(12)
H38_4 H 0.907443 0.236277 0.939884
O6_6 O 1.000000 0.96001(10) 0.750000
O8_4 O 0.8655(3) 0.93408(10) 0.64196(8)
C3_4 C 0.5797(3) 0.97897(9) 0.68959(10)
C28_4 C 0.8171(6) 0.93999(16) 0.60255(16)
N1_4 N 0.8614(8) 0.96169(19) 0.57090(15)
C29_4 C 0.6791(7) 0.9193(2) 0.58116(19)
H16_4 H 0.607537 0.924616 0.600969
H17_4 H 0.688481 0.887657 0.577010
C30_4 C 0.7833(11) 0.9636(3) 0.5273(2)
H18_4 H 0.768946 0.994029 0.517113
H19_4 H 0.827341 0.947417 0.504230
C31_4 C 0.6471(12) 0.9414(3) 0.5365(3)
H20_4 H 0.617854 0.920172 0.512613
H21_4 H 0.575783 0.963389 0.538129
C32_4 C 0.9990(9) 0.9818(3) 0.5786(3)
H46_4 H 0.941920 0.967919 0.941298
H48_4 H 0.964810 0.977613 0.889890
loop_
_geom_bond_atom_site_label_1
_geom_bond_atom_site_label_2
_geom_bond_site_symmetry_1
_geom_bond_site_symmetry_2
O4 Ca5 1_555 1_555
Ca1 O5 1_555 1_555
Ca2 O1 1_555 1_555
O1 C3 1_555 1_555
O2 C2 1_555 1_555
O3 C2 1_555 1_555
O5 C11 1_555 1_555
O6 Ca2 1_555 1_555
O7 C11 1_555 1_555
O8 Ca2 1_555 1_555
C1 C2 1_555 1_555
C3 C15 1_555 1_555
C4 C6 1_555 1_555
C5 C1 1_555 1_555
H1 C5 1_555 1_555
C6 C10 1_555 1_555
C7 C9 1_555 1_555
C8 C11 1_555 1_555
C9 C10 1_555 1_555
C10 H2 1_555 1_555
C12 C1 1_555 1_555
H3 C12 1_555 1_555
C13 C4 1_555 1_555
H4 C13 1_555 1_555
C14 C18 1_555 1_555
C15 C24 1_555 1_555
C16 C8 1_555 1_555
H5 C16 1_555 1_555
C17 C4 1_555 1_555
H6 C17 1_555 1_555
C18 C19 1_555 1_555
C19 C9 1_555 1_555
H7 C19 1_555 1_555
C20 C6 1_555 1_555
H8 C20 1_555 1_555
C21 C7 1_555 1_555
H9 C21 1_555 1_555
C22 C14 1_555 1_555
H10 C22 1_555 1_555
C23 C14 1_555 1_555
H11 C23 1_555 1_555
C24 C23 1_555 1_555
H12 C24 1_555 1_555
C25 C8 1_555 1_555
H13 C25 1_555 1_555
C26 C7 1_555 1_555
H14 C26 1_555 1_555
C27 C15 1_555 1_555
C28 O8 1_555 1_555
N1 C28 1_555 1_555
C29 C28 1_555 1_555
H16 C29 1_555 1_555
H17 C29 1_555 1_555
C30 N1 1_555 1_555
H18 C30 1_555 1_555
H19 C30 1_555 1_555
C31 C29 1_555 1_555
H20 C31 1_555 1_555
H21 C31 1_555 1_555
C32 N1 1_555 1_555
H22 C32 1_555 1_555
H23 C32 1_555 1_555
H24 C32 1_555 1_555
Ca3 O6 1_555 1_555
O9 Ca3 1_555 1_555
O13 Ca1 1_555 1_555
O14 C43 1_555 1_555
O15 Ca3 1_555 1_555
C35 O9 1_555 1_555
C38 C42 1_555 1_555
C39 C41 1_555 1_555
C40 C43 1_555 1_555
C41 C42 1_555 1_555
C42 H26 1_555 1_555
C43 O13 1_555 1_555
C46 C50 1_555 1_555
C47 C35 1_555 1_555
C48 C40 1_555 1_555
H29 C48 1_555 1_555
C50 C51 1_555 1_555
C51 C41 1_555 1_555
H31 C51 1_555 1_555
C52 C38 1_555 1_555
H32 C52 1_555 1_555
C53 C39 1_555 1_555
H33 C53 1_555 1_555
C54 C46 1_555 1_555
H34 C54 1_555 1_555
C55 C46 1_555 1_555
H35 C55 1_555 1_555
C56 C47 1_555 1_555
H36 C56 1_555 1_555
C57 C40 1_555 1_555
H37 C57 1_555 1_555
C58 C39 1_555 1_555
H38 C58 1_555 1_555
C59 C47 1_555 1_555
C60 O15 1_555 1_555
N2 C60 1_555 1_555
C61 C60 1_555 1_555
H40 C61 1_555 1_555
H41 C61 1_555 1_555
C62 N2 1_555 1_555
H42 C62 1_555 1_555
H43 C62 1_555 1_555
C63 C61 1_555 1_555
H44 C63 1_555 1_555
H45 C63 1_555 1_555
C64 N2 1_555 1_555
H46 C64 1_555 1_555
H47 C64 1_555 1_555
H48 C64 1_555 1_555
Ca5 O9 1_555 1_555
Ca5_2 O1 1_555 1_555
Ca7_2 O2 1_555 1_555
Ca8 O5 1_555 1_555
Ca9 O13 1_555 1_555
Ca11 O3 1_555 1_555
Ca13 O2 1_555 1_555
O16 Ca1 1_555 1_555
O17 Ca1 1_555 1_555
O18 Ca3 1_555 1_555
O19 Ca2 1_555 1_555
O20 Ca1 1_555 1_555
O21 Ca1 1_555 1_555
O22 Ca2 1_555 1_555
O23 Ca2 1_555 1_555
O24 Ca1 1_555 1_555
O25 Ca1 1_555 1_555
O26 Ca2 1_555 1_555
O27 Ca3 1_555 1_555
O28 Ca2 1_555 1_555
O29 Ca3 1_555 1_555
O3 Ca13 1_555 1_555
O7 Ca8 1_555 1_555
C5 C17 1_555 1_555
C12 C13 1_555 1_555
C16 C21 1_555 1_555
C18 C20 1_555 1_555
C22 C27 1_555 1_555
C25 C26 1_555 1_555
C30 C31 1_555 1_555
Ca3 O22 1_555 1_555
Ca3 O23 1_555 1_555
O14 Ca9 1_555 1_555
C48 C53 1_555 1_555
C50 C52 1_555 1_555
C54 C59 1_555 1_555
C55 C56 1_555 1_555
C57 C58 1_555 1_555
C62 C63 1_555 1_555
Ca5 O18 1_555 1_555
Ca5 O27 1_555 1_555
Ca5_2 O19 1_555 1_555
Ca5_2 O26 1_555 1_555
Ca8 O16 1_555 1_555
Ca8 O21 1_555 1_555
Ca9 O17 1_555 1_555
Ca9 O20 1_555 1_555
O10 C34 1_555 1_555
O11 C34 1_555 1_555
C33 C34 1_555 1_555
C37 C33 1_555 1_555
H25 C37 1_555 1_555
C44 C33 1_555 1_555
H27 C44 1_555 1_555
C45 C36 1_555 1_555
H28 C45 1_555 1_555
C49 C36 1_555 1_555
H30 C49 1_555 1_555
Ca7 O10 1_555 1_555
Ca11 O10 1_555 1_555
Ca13 O11 1_555 1_555
O11 Ca11 1_555 1_555
C37 C49 1_555 1_555
C44 C45 1_555 1_555
O12 Ca5_2 1_555 1_555
O16 C3_2 1_555 1_555
O24 C3_2 1_555 1_555
O6_2 Ca8 1_555 1_555
O8_2 Ca8 1_555 1_555
C28_2 O8_2 1_555 1_555
N1_2 C28_2 1_555 1_555
C29_2 C28_2 1_555 1_555
H16_2 C29_2 1_555 1_555
H17_2 C29_2 1_555 1_555
C30_2 N1_2 1_555 1_555
H18_2 C30_2 1_555 1_555
H19_2 C30_2 1_555 1_555
C31_2 C29_2 1_555 1_555
H20_2 C31_2 1_555 1_555
H21_2 C31_2 1_555 1_555
C32_2 N1_2 1_555 1_555
O23_2 Ca8 1_555 1_555
C30_2 C31_2 1_555 1_555
O2_2 C2_2 1_555 1_555
O3_2 C2_2 1_555 1_555
C1_2 C2_2 1_555 1_555
C4_2 C6_2 1_555 1_555
C5_2 C1_2 1_555 1_555
C6_2 C10_2 1_555 1_555
C7_2 C9_2 1_555 1_555
C9_2 C10_2 1_555 1_555
C10_2 H2_2 1_555 1_555
C12_2 C1_2 1_555 1_555
H3_2 C12_2 1_555 1_555
C13_2 C4_2 1_555 1_555
H4_2 C13_2 1_555 1_555
C14_2 C18_2 1_555 1_555
C15_2 C24_2 1_555 1_555
H5_2 C16_2 1_555 1_555
C17_2 C4_2 1_555 1_555
C18_2 C19_2 1_555 1_555
C19_2 C9_2 1_555 1_555
H7_2 C19_2 1_555 1_555
C20_2 C6_2 1_555 1_555
H8_2 C20_2 1_555 1_555
C21_2 C7_2 1_555 1_555
H9_2 C21_2 1_555 1_555
C22_2 C14_2 1_555 1_555
H10_2 C22_2 1_555 1_555
C23_2 C14_2 1_555 1_555
H11_2 C23_2 1_555 1_555
C24_2 C23_2 1_555 1_555
H12_2 C24_2 1_555 1_555
C27_2 C15_2 1_555 1_555
H15_2 C27_2 1_555 1_555
O29 C43_2 1_555 1_555
C40_2 C43_2 1_555 1_555
C43_2 O27 1_555 1_555
C57_2 C40_2 1_555 1_555
H37_2 C57_2 1_555 1_555
H38_2 C58_2 1_555 1_555
Ca7_3 O2_2 1_555 1_555
Ca13_2 O2_2 1_555 1_555
O3_2 Ca13_2 1_555 1_555
C5_2 C17_2 1_555 1_555
C12_2 C13_2 1_555 1_555
C16_2 C21_2 1_555 1_555
C18_2 C20_2 1_555 1_555
C22_2 C27_2 1_555 1_555
C57_2 C58_2 1_555 1_555
Ca9 O6_3 1_555 1_555
O25 C35_2 1_555 1_555
O15_2 Ca9 1_555 1_555
C35_2 O17 1_555 1_555
C60_2 O15_2 1_555 1_555
N2_2 C60_2 1_555 1_555
C61_2 C60_2 1_555 1_555
H40_2 C61_2 1_555 1_555
H41_2 C61_2 1_555 1_555
C62_2 N2_2 1_555 1_555
H42_2 C62_2 1_555 1_555
H43_2 C62_2 1_555 1_555
C63_2 C61_2 1_555 1_555
H44_2 C63_2 1_555 1_555
H45_2 C63_2 1_555 1_555
C64_2 N2_2 1_555 1_555
Ca9 O22_2 1_555 1_555
C62_2 C63_2 1_555 1_555
O26 C11_2 1_555 1_555
O28 C11_2 1_555 1_555
C8_2 C11_2 1_555 1_555
C25_2 C8_2 1_555 1_555
H13_2 C25_2 1_555 1_555
H14_2 C26_2 1_555 1_555
C38_2 C42_2 1_555 1_555
C39_2 C41_2 1_555 1_555
C41_2 C42_2 1_555 1_555
C42_2 H26_2 1_555 1_555
C46_2 C50_2 1_555 1_555
H29_2 C48_2 1_555 1_555
C50_2 C51_2 1_555 1_555
C51_2 C41_2 1_555 1_555
H31_2 C51_2 1_555 1_555
C52_2 C38_2 1_555 1_555
H32_2 C52_2 1_555 1_555
C53_2 C39_2 1_555 1_555
H33_2 C53_2 1_555 1_555
C54_2 C46_2 1_555 1_555
H34_2 C54_2 1_555 1_555
C55_2 C46_2 1_555 1_555
H35_2 C55_2 1_555 1_555
C56_2 C47_2 1_555 1_555
H36_2 C56_2 1_555 1_555
C59_2 C47_2 1_555 1_555
H39_2 C59_2 1_555 1_555
C25_2 C26_2 1_555 1_555
C48_2 C53_2 1_555 1_555
C50_2 C52_2 1_555 1_555
C54_2 C59_2 1_555 1_555
C55_2 C56_2 1_555 1_555
O10_2 C34_2 1_555 1_555
O11_2 C34_2 1_555 1_555
C33_2 C34_2 1_555 1_555
C37_2 C33_2 1_555 1_555
C44_2 C33_2 1_555 1_555
H27_2 C44_2 1_555 1_555
C45_2 C36_2 1_555 1_555
H28_2 C45_2 1_555 1_555
C49_2 C36_2 1_555 1_555
Ca7_3 O10_2 1_555 1_555
Ca11_2 O10_2 1_555 1_555
O11_2 Ca11_2 1_555 1_555
C37_2 C49_2 1_555 1_555
C44_2 C45_2 1_555 1_555
O12_2 Ca7 1_555 1_555
O19 C34_3 1_555 1_555
O23 C34_3 1_555 1_555
C33_3 C34_3 1_555 1_555
C37_3 C33_3 1_555 1_555
H25_3 C37_3 1_555 1_555
C44_3 C33_3 1_555 1_555
H27_3 C44_3 1_555 1_555
C45_3 C36_3 1_555 1_555
H28_3 C45_3 1_555 1_555
C49_3 C36_3 1_555 1_555
H30_3 C49_3 1_555 1_555
C37_3 C49_3 1_555 1_555
C44_3 C45_3 1_555 1_555
Ca7_3 O5_2 1_555 1_555
Ca11 O1_2 1_555 1_555
O1_2 C3_3 1_555 1_555
O18 C2_3 1_555 1_555
O22 C2_3 1_555 1_555
O5_2 C11_3 1_555 1_555
O6_4 Ca11 1_555 1_555
O7_2 C11_3 1_555 1_555
O8_3 Ca11 1_555 1_555
C1_3 C2_3 1_555 1_555
C3_3 C15_3 1_555 1_555
C4_3 C6_3 1_555 1_555
C5_3 C1_3 1_555 1_555
H1_3 C5_3 1_555 1_555
C6_3 C10_3 1_555 1_555
C7_3 C9_3 1_555 1_555
C8_3 C11_3 1_555 1_555
C9_3 C10_3 1_555 1_555
C10_3 H2_3 1_555 1_555
C12_3 C1_3 1_555 1_555
H3_3 C12_3 1_555 1_555
C13_3 C4_3 1_555 1_555
H4_3 C13_3 1_555 1_555
C14_3 C18_3 1_555 1_555
C15_3 C24_3 1_555 1_555
C16_3 C8_3 1_555 1_555
H5_3 C16_3 1_555 1_555
C17_3 C4_3 1_555 1_555
H6_3 C17_3 1_555 1_555
C18_3 C19_3 1_555 1_555
C19_3 C9_3 1_555 1_555
H7_3 C19_3 1_555 1_555
C20_3 C6_3 1_555 1_555
H8_3 C20_3 1_555 1_555
C21_3 C7_3 1_555 1_555
H9_3 C21_3 1_555 1_555
C22_3 C14_3 1_555 1_555
H10_3 C22_3 1_555 1_555
C23_3 C14_3 1_555 1_555
H11_3 C23_3 1_555 1_555
C24_3 C23_3 1_555 1_555
H12_3 C24_3 1_555 1_555
C25_3 C8_3 1_555 1_555
H13_3 C25_3 1_555 1_555
C26_3 C7_3 1_555 1_555
H14_3 C26_3 1_555 1_555
C27_3 C15_3 1_555 1_555
C28_3 O8_3 1_555 1_555
N1_3 C28_3 1_555 1_555
C29_3 C28_3 1_555 1_555
H16_3 C29_3 1_555 1_555
H17_3 C29_3 1_555 1_555
C30_3 N1_3 1_555 1_555
H18_3 C30_3 1_555 1_555
H19_3 C30_3 1_555 1_555
C31_3 C29_3 1_555 1_555
H20_3 C31_3 1_555 1_555
H21_3 C31_3 1_555 1_555
C32_3 N1_3 1_555 1_555
H22_3 C32_3 1_555 1_555
H23_3 C32_3 1_555 1_555
H24_3 C32_3 1_555 1_555
Ca13 O6_4 1_555 1_555
O9_2 Ca13 1_555 1_555
O13_2 Ca7_3 1_555 1_555
O14_2 C43_3 1_555 1_555
O15_3 Ca13 1_555 1_555
C35_3 O9_2 1_555 1_555
C38_3 C42_3 1_555 1_555
C39_3 C41_3 1_555 1_555
C40_3 C43_3 1_555 1_555
C41_3 C42_3 1_555 1_555
C42_3 H26_3 1_555 1_555
C43_3 O13_2 1_555 1_555
C46_3 C50_3 1_555 1_555
C47_3 C35_3 1_555 1_555
C48_3 C40_3 1_555 1_555
H29_3 C48_3 1_555 1_555
C50_3 C51_3 1_555 1_555
C51_3 C41_3 1_555 1_555
H31_3 C51_3 1_555 1_555
C52_3 C38_3 1_555 1_555
H32_3 C52_3 1_555 1_555
C53_3 C39_3 1_555 1_555
H33_3 C53_3 1_555 1_555
C54_3 C46_3 1_555 1_555
H34_3 C54_3 1_555 1_555
C55_3 C46_3 1_555 1_555
H35_3 C55_3 1_555 1_555
C56_3 C47_3 1_555 1_555
H36_3 C56_3 1_555 1_555
C57_3 C40_3 1_555 1_555
H37_3 C57_3 1_555 1_555
C58_3 C39_3 1_555 1_555
H38_3 C58_3 1_555 1_555
C59_3 C47_3 1_555 1_555
C60_3 O15_3 1_555 1_555
N2_3 C60_3 1_555 1_555
C61_3 C60_3 1_555 1_555
H40_3 C61_3 1_555 1_555
H41_3 C61_3 1_555 1_555
C62_3 N2_3 1_555 1_555
H42_3 C62_3 1_555 1_555
H43_3 C62_3 1_555 1_555
C63_3 C61_3 1_555 1_555
H44_3 C63_3 1_555 1_555
H45_3 C63_3 1_555 1_555
C64_3 N2_3 1_555 1_555
H46_3 C64_3 1_555 1_555
H47_3 C64_3 1_555 1_555
H48_3 C64_3 1_555 1_555
Ca7_2 O9_2 1_555 1_555
Ca7 O1_2 1_555 1_555
Ca11_2 O5_2 1_555 1_555
Ca13_2 O13_2 1_555 1_555
O16_2 Ca7_3 1_555 1_555
O17_2 Ca7_3 1_555 1_555
O24_2 Ca7_3 1_555 1_555
O25_2 Ca7_3 1_555 1_555
O26_2 Ca11 1_555 1_555
O27_2 Ca13 1_555 1_555
O28_2 Ca11 1_555 1_555
O29_2 Ca13 1_555 1_555
O7_2 Ca11_2 1_555 1_555
C5_3 C17_3 1_555 1_555
C12_3 C13_3 1_555 1_555
C16_3 C21_3 1_555 1_555
C18_3 C20_3 1_555 1_555
C22_3 C27_3 1_555 1_555
C25_3 C26_3 1_555 1_555
C30_3 C31_3 1_555 1_555
O14_2 Ca13_2 1_555 1_555
C48_3 C53_3 1_555 1_555
C50_3 C52_3 1_555 1_555
C54_3 C59_3 1_555 1_555
C55_3 C56_3 1_555 1_555
C57_3 C58_3 1_555 1_555
C62_3 C63_3 1_555 1_555
Ca7_2 O27_2 1_555 1_555
Ca7 O26_2 1_555 1_555
Ca11_2 O16_2 1_555 1_555
Ca13_2 O17_2 1_555 1_555
O4_2 Ca7_2 1_555 1_555
O21 C34_4 1_555 1_555
O23_2 C34_4 1_555 1_555
C33_4 C34_4 1_555 1_555
C37_4 C33_4 1_555 1_555
C44_4 C33_4 1_555 1_555
H27_4 C44_4 1_555 1_555
C45_4 C36_4 1_555 1_555
H28_4 C45_4 1_555 1_555
C49_4 C36_4 1_555 1_555
C37_4 C49_4 1_555 1_555
C44_4 C45_4 1_555 1_555
O26_2 C11_4 1_555 1_555
O28_2 C11_4 1_555 1_555
C8_4 C11_4 1_555 1_555
C25_4 C8_4 1_555 1_555
H13_4 C25_4 1_555 1_555
H14_4 C26_4 1_555 1_555
C38_4 C42_4 1_555 1_555
C39_4 C41_4 1_555 1_555
C41_4 C42_4 1_555 1_555
C42_4 H26_4 1_555 1_555
C46_4 C50_4 1_555 1_555
H29_4 C48_4 1_555 1_555
C50_4 C51_4 1_555 1_555
C51_4 C41_4 1_555 1_555
H31_4 C51_4 1_555 1_555
C52_4 C38_4 1_555 1_555
H32_4 C52_4 1_555 1_555
C53_4 C39_4 1_555 1_555
H33_4 C53_4 1_555 1_555
C54_4 C46_4 1_555 1_555
H34_4 C54_4 1_555 1_555
C55_4 C46_4 1_555 1_555
H35_4 C55_4 1_555 1_555
C56_4 C47_4 1_555 1_555
H36_4 C56_4 1_555 1_555
C59_4 C47_4 1_555 1_555
H39_4 C59_4 1_555 1_555
C25_4 C26_4 1_555 1_555
C48_4 C53_4 1_555 1_555
C50_4 C52_4 1_555 1_555
C54_4 C59_4 1_555 1_555
C55_4 C56_4 1_555 1_555
Ca13_2 O6_5 1_555 1_555
O25_2 C35_4 1_555 1_555
O15_4 Ca13_2 1_555 1_555
C35_4 O17_2 1_555 1_555
C60_4 O15_4 1_555 1_555
N2_4 C60_4 1_555 1_555
C61_4 C60_4 1_555 1_555
H40_4 C61_4 1_555 1_555
H41_4 C61_4 1_555 1_555
C62_4 N2_4 1_555 1_555
H42_4 C62_4 1_555 1_555
H43_4 C62_4 1_555 1_555
C63_4 C61_4 1_555 1_555
H44_4 C63_4 1_555 1_555
H45_4 C63_4 1_555 1_555
C64_4 N2_4 1_555 1_555
C62_4 C63_4 1_555 1_555
O20 C2_4 1_555 1_555
O22_2 C2_4 1_555 1_555
C1_4 C2_4 1_555 1_555
C4_4 C6_4 1_555 1_555
C5_4 C1_4 1_555 1_555
C6_4 C10_4 1_555 1_555
C7_4 C9_4 1_555 1_555
C9_4 C10_4 1_555 1_555
C10_4 H2_4 1_555 1_555
C12_4 C1_4 1_555 1_555
H3_4 C12_4 1_555 1_555
C13_4 C4_4 1_555 1_555
H4_4 C13_4 1_555 1_555
C14_4 C18_4 1_555 1_555
C15_4 C24_4 1_555 1_555
H5_4 C16_4 1_555 1_555
C17_4 C4_4 1_555 1_555
C18_4 C19_4 1_555 1_555
C19_4 C9_4 1_555 1_555
H7_4 C19_4 1_555 1_555
C20_4 C6_4 1_555 1_555
H8_4 C20_4 1_555 1_555
C21_4 C7_4 1_555 1_555
H9_4 C21_4 1_555 1_555
C22_4 C14_4 1_555 1_555
H10_4 C22_4 1_555 1_555
C23_4 C14_4 1_555 1_555
H11_4 C23_4 1_555 1_555
C24_4 C23_4 1_555 1_555
H12_4 C24_4 1_555 1_555
C27_4 C15_4 1_555 1_555
H15_4 C27_4 1_555 1_555
O29_2 C43_4 1_555 1_555
C40_4 C43_4 1_555 1_555
C43_4 O27_2 1_555 1_555
C57_4 C40_4 1_555 1_555
H37_4 C57_4 1_555 1_555
H38_4 C58_4 1_555 1_555
C5_4 C17_4 1_555 1_555
C12_4 C13_4 1_555 1_555
C16_4 C21_4 1_555 1_555
C18_4 C20_4 1_555 1_555
C22_4 C27_4 1_555 1_555
C57_4 C58_4 1_555 1_555
O16_2 C3_4 1_555 1_555
O24_2 C3_4 1_555 1_555
O6_6 Ca11_2 1_555 1_555
O8_4 Ca11_2 1_555 1_555
C28_4 O8_4 1_555 1_555
N1_4 C28_4 1_555 1_555
C29_4 C28_4 1_555 1_555
H16_4 C29_4 1_555 1_555
H17_4 C29_4 1_555 1_555
C30_4 N1_4 1_555 1_555
H18_4 C30_4 1_555 1_555
H19_4 C30_4 1_555 1_555
C31_4 C29_4 1_555 1_555
H20_4 C31_4 1_555 1_555
H21_4 C31_4 1_555 1_555
C32_4 N1_4 1_555 1_555
C30_4 C31_4 1_555 1_555

#END
