
###############################################################################
#
# This file contains modified crystal structure data generated from the
# MOF subset of the Cambridge Structural Database (CSD) v542 
# hosted by the Cambridge Crystallographic Data Centre (CCDC).
#
# This work is licensed under the Creative Commons
# Attribution-NonCommercial-ShareAlike 4.0 International License.
# To view a copy of this license, visit
# http://creativecommons.org/licenses/by-nc-sa/4.0/
# or send a letter to
# Creative Commons, PO Box 1866, Mountain View, CA 94042, USA.
#
# CIF created using the CSD Python API on 22 February 2021
# The structure has been converted into the P1 space group
# The structure has a 3D framework
# The original CSD entry WUFGEM is in the orthorhombic crystal system
# The original CSD entry WUFGEM is in a Sohncke space group
# The framework has been calculated to contain at least 10.0% void space
# The void calculation uses a probe of radius 1.32A, grid spacing 0.4
#
###############################################################################

data_WUFGEM
_chemical_formula_moiety         '(C76 H90 Co16 O80)n'
_symmetry_cell_setting           triclinic
_symmetry_space_group_name_H-M   'P 1'
_symmetry_Int_Tables_number      1
_space_group_name_Hall           'P 1'
loop_
_symmetry_equiv_pos_site_id
_symmetry_equiv_pos_as_xyz
1 x,y,z
_cell_length_a                   6.97316(18)
_cell_length_b                   28.3906(6)
_cell_length_c                   17.3886(4)
_cell_angle_alpha                90
_cell_angle_beta                 90
_cell_angle_gamma                90
_cell_volume                     3442.46
loop_
_atom_site_label
_atom_site_type_symbol
_atom_site_fract_x
_atom_site_fract_y
_atom_site_fract_z
Co9 Co 0.24032(12) 0.81851(2) 0.19052(4)
Co12 Co 0.24032(12) 0.18149(2) 0.80948(4)
Co1 Co 0.74032(12) 0.31851(2) 0.69052(4)
Co2 Co 0.66511(14) 0.37469(3) 0.86078(4)
O1 O 0.7488(13) 0.30504(18) 0.5797(3)
O2 O 0.5712(16) 0.4283(2) 0.9256(4)
O3 O 0.8312(9) 0.25573(17) 0.7069(3)
O4 O 0.9149(9) 0.20472(16) 0.7965(3)
O5 O 0.7761(7) 0.32614(14) 0.7997(2)
O6 O 0.7324(9) 0.34664(16) 0.9580(2)
C1 C 0.8664(10) 0.2453(2) 0.7765(4)
C2 C 0.8520(10) 0.2850(2) 0.8349(4)
H5 H 0.984445 0.292426 0.853329
C3 C 0.7330(11) 0.2685(2) 0.9045(3)
H6 H 0.597800 0.264524 0.888387
H7 H 0.780940 0.237363 0.921543
C4 C 0.7407(11) 0.3023(2) 0.9715(3)
O8 O 0.6598(8) 0.38129(14) 0.6654(2)
O9 O 0.6261(9) 0.41895(15) 0.7775(3)
C5 C 0.6180(9) 0.4162(2) 0.7055(4)
C6 C 0.5540(9) 0.45989(19) 0.6633(3)
C7 C 0.500000 0.500000 0.7034(5)
H8 H 0.500003 0.500001 0.758018
C8 C 0.5517(9) 0.4596(2) 0.5832(4)
H9 H 0.585532 0.431809 0.556019
C9 C 0.500000 0.500000 0.5431(5)
O10 O 0.3478(9) 0.3467(2) 0.8436(3)
O11 O 0.3402(8) 0.61871(14) 0.6654(2)
O12 O 0.3739(9) 0.58105(15) 0.7775(3)
C10 C 0.3820(9) 0.5838(2) 0.7055(4)
C11 C 0.4460(9) 0.54011(19) 0.6633(3)
C12 C 0.4483(9) 0.5404(2) 0.5832(4)
H12 H 0.414468 0.568191 0.556019
O13 O 0.3402(8) 0.38129(14) 0.3346(2)
O14 O 0.3739(9) 0.41895(15) 0.2225(3)
C13 C 0.3820(9) 0.4162(2) 0.2945(4)
C14 C 0.4460(9) 0.45989(19) 0.3367(3)
C15 C 0.500000 0.500000 0.2966(5)
H13 H 0.499997 0.500001 0.241982
C16 C 0.4483(9) 0.4596(2) 0.4168(4)
H14 H 0.414468 0.431809 0.443981
C17 C 0.500000 0.500000 0.4569(5)
O15 O 0.6598(8) 0.61871(14) 0.3346(2)
O16 O 0.6261(9) 0.58105(15) 0.2225(3)
C18 C 0.6180(9) 0.5838(2) 0.2945(4)
C19 C 0.5540(9) 0.54011(19) 0.3367(3)
C20 C 0.5517(9) 0.5404(2) 0.4168(4)
H15 H 0.585532 0.568191 0.443981
Co3 Co 0.25968(12) 0.68149(2) 0.69052(4)
Co4 Co 0.33489(14) 0.62531(3) 0.86078(4)
O17 O 0.2512(13) 0.69496(18) 0.5797(3)
O18 O 0.4288(16) 0.5717(2) 0.9256(4)
O19 O 0.1688(9) 0.74427(17) 0.7069(3)
O20 O 0.0851(9) 0.79528(16) 0.7965(3)
O21 O 0.2239(7) 0.67386(14) 0.7997(2)
O22 O 0.2676(9) 0.65336(16) 0.9580(2)
C21 C 0.1336(10) 0.7547(2) 0.7765(4)
C22 C 0.1480(10) 0.7150(2) 0.8349(4)
H20 H 0.015555 0.707574 0.853329
C23 C 0.2670(11) 0.7315(2) 0.9045(3)
H21 H 0.402200 0.735476 0.888387
H22 H 0.219060 0.762637 0.921543
C24 C 0.2593(11) 0.6977(2) 0.9715(3)
O24 O 0.6522(9) 0.6533(2) 0.8436(3)
Co5 Co 0.25968(12) 0.31851(2) 0.30948(4)
Co6 Co 0.33489(14) 0.37469(3) 0.13922(4)
O25 O 0.2512(13) 0.30504(18) 0.4203(3)
O26 O 0.4288(16) 0.4283(2) 0.0744(4)
O27 O 0.1688(9) 0.25573(17) 0.2931(3)
O28 O 0.0851(9) 0.20472(16) 0.2035(3)
O29 O 0.2239(7) 0.32614(14) 0.2003(2)
O30 O 0.2676(9) 0.34664(16) 0.0420(2)
C25 C 0.1336(10) 0.2453(2) 0.2235(4)
C26 C 0.1480(10) 0.2850(2) 0.1651(4)
H29 H 0.015555 0.292426 0.146671
C27 C 0.2670(11) 0.2685(2) 0.0955(3)
H30 H 0.402200 0.264524 0.111613
H31 H 0.219060 0.237363 0.078457
C28 C 0.2593(11) 0.3023(2) 0.0285(3)
O32 O 0.6522(9) 0.3467(2) 0.1564(3)
Co7 Co 0.74032(12) 0.68149(2) 0.30948(4)
Co8 Co 0.66511(14) 0.62531(3) 0.13922(4)
O33 O 0.7488(13) 0.69496(18) 0.4203(3)
O34 O 0.5712(16) 0.5717(2) 0.0744(4)
O35 O 0.8312(9) 0.74427(17) 0.2931(3)
O36 O 0.9149(9) 0.79528(16) 0.2035(3)
O37 O 0.7761(7) 0.67386(14) 0.2003(2)
O38 O 0.7324(9) 0.65336(16) 0.0420(2)
C29 C 0.8664(10) 0.7547(2) 0.2235(4)
C30 C 0.8520(10) 0.7150(2) 0.1651(4)
H38 H 0.984445 0.707574 0.146671
C31 C 0.7330(11) 0.7315(2) 0.0955(3)
H39 H 0.597800 0.735476 0.111613
H40 H 0.780940 0.762637 0.078457
C32 C 0.7407(11) 0.6977(2) 0.0285(3)
O40 O 0.3478(9) 0.6533(2) 0.1564(3)
O41 O 0.4149(9) 0.70472(16) 0.2965(3)
O42 O 0.5851(9) 0.29528(16) 0.2965(3)
O43 O 0.5851(9) 0.70472(16) 0.7035(3)
O44 O 0.4149(9) 0.29528(16) 0.7035(3)
Co10 Co 0.75968(12) 0.18149(2) 0.19052(4)
Co11 Co 0.75968(12) 0.81851(2) 0.80948(4)
C7_2 C 0.000000 0.000000 0.2034(5)
H8_2 H 0.000003 0.000001 0.258018
C9_2 C -0.000000 0.000000 0.0431(5)
O24_2 O 0.1522(9) 0.1533(2) 0.3436(3)
C15_2 C 0.000000 0.000000 0.7966(5)
H13_2 H -0.000003 0.000001 0.741982
C17_2 C -0.000000 0.000000 0.9569(5)
O15_2 O 0.1598(8) 0.11871(14) 0.8346(2)
O16_2 O 0.1261(9) 0.08105(15) 0.7225(3)
C18_2 C 0.1180(9) 0.0838(2) 0.7945(4)
C19_2 C 0.0540(9) 0.04011(19) 0.8367(3)
C20_2 C 0.0517(9) 0.0404(2) 0.9168(4)
H15_2 H 0.085532 0.068191 0.943981
Co8_2 Co 0.16511(14) 0.12531(3) 0.63922(4)
O33_2 O 0.2488(13) 0.19496(18) 0.9203(3)
O34_2 O 0.0712(16) 0.0717(2) 0.5744(4)
O35_2 O 0.3312(9) 0.24427(17) 0.7931(3)
O37_2 O 0.2761(7) 0.17386(14) 0.7003(2)
O38_2 O 0.2324(9) 0.15336(16) 0.5420(2)
O39 O 0.2486(9) 0.21306(16) 0.4610(3)
C29_2 C 0.3664(10) 0.2547(2) 0.7235(4)
C30_2 C 0.3520(10) 0.2150(2) 0.6651(4)
H38_2 H 0.484445 0.207574 0.646671
C31_2 C 0.2330(11) 0.2315(2) 0.5955(3)
H39_2 H 0.097800 0.235476 0.611613
H40_2 H 0.280940 0.262637 0.578457
C32_2 C 0.2407(11) 0.1977(2) 0.5285(3)
Co2_2 Co 0.16511(14) 0.87469(3) 0.36078(4)
O1_2 O 0.2488(13) 0.80504(18) 0.0797(3)
O2_2 O 0.0712(16) 0.9283(2) 0.4256(4)
O3_2 O 0.3312(9) 0.75573(17) 0.2069(3)
O5_2 O 0.2761(7) 0.82614(14) 0.2997(2)
O6_2 O 0.2324(9) 0.84664(16) 0.4580(2)
O7 O 0.2486(9) 0.78694(16) 0.5390(3)
C1_2 C 0.3664(10) 0.7453(2) 0.2765(4)
C2_2 C 0.3520(10) 0.7850(2) 0.3349(4)
H5_2 H 0.484445 0.792426 0.353329
C3_2 C 0.2330(11) 0.7685(2) 0.4045(3)
H6_2 H 0.097800 0.764524 0.388387
H7_2 H 0.280940 0.737363 0.421543
C4_2 C 0.2407(11) 0.8023(2) 0.4715(3)
O8_2 O 0.1598(8) 0.88129(14) 0.1654(2)
O9_2 O 0.1261(9) 0.91895(15) 0.2775(3)
C5_2 C 0.1180(9) 0.9162(2) 0.2055(4)
C6_2 C 0.0540(9) 0.95989(19) 0.1633(3)
C7_3 C 0.000000 1.000000 0.2034(5)
H8_3 H 0.000003 1.000001 0.258018
C8_2 C 0.0517(9) 0.9596(2) 0.0832(4)
H9_2 H 0.085532 0.931809 0.056019
C9_3 C 0.000000 1.000000 0.0431(5)
C15_3 C 0.000000 1.000000 0.7966(5)
H13_3 H -0.000003 1.000001 0.741982
C17_3 C 0.000000 1.000000 0.9569(5)
O32_2 O 0.1522(9) 0.8467(2) 0.6564(3)
C7_4 C 1.000000 0.000000 0.2034(5)
H8_4 H 1.000003 0.000001 0.258018
C9_4 C 1.000000 0.000000 0.0431(5)
O11_2 O 0.8402(8) 0.11871(14) 0.1654(2)
O12_2 O 0.8739(9) 0.08105(15) 0.2775(3)
C10_2 C 0.8820(9) 0.0838(2) 0.2055(4)
C11_2 C 0.9460(9) 0.04011(19) 0.1633(3)
C12_2 C 0.9483(9) 0.0404(2) 0.0832(4)
H12_2 H 0.914468 0.068191 0.056019
Co4_2 Co 0.83489(14) 0.12531(3) 0.36078(4)
O17_2 O 0.7512(13) 0.19496(18) 0.0797(3)
O18_2 O 0.9288(16) 0.0717(2) 0.4256(4)
O19_2 O 0.6688(9) 0.24427(17) 0.2069(3)
O21_2 O 0.7239(7) 0.17386(14) 0.2997(2)
O22_2 O 0.7676(9) 0.15336(16) 0.4580(2)
O23 O 0.7514(9) 0.21306(16) 0.5390(3)
C21_2 C 0.6336(10) 0.2547(2) 0.2765(4)
C22_2 C 0.6480(10) 0.2150(2) 0.3349(4)
H20_2 H 0.515555 0.207574 0.353329
C23_2 C 0.7670(11) 0.2315(2) 0.4045(3)
H21_2 H 0.902200 0.235476 0.388387
H22_2 H 0.719060 0.262637 0.421543
C24_2 C 0.7593(11) 0.1977(2) 0.4715(3)
C15_4 C 1.000000 0.000000 0.7966(5)
H13_4 H 0.999997 0.000001 0.741982
C17_4 C 1.000000 0.000000 0.9569(5)
O40_2 O 0.8478(9) 0.1533(2) 0.6564(3)
C7_5 C 1.000000 1.000000 0.2034(5)
H8_5 H 1.000003 1.000001 0.258018
C9_5 C 1.000000 1.000000 0.0431(5)
O10_2 O 0.8478(9) 0.8467(2) 0.3436(3)
O13_2 O 0.8402(8) 0.88129(14) 0.8346(2)
O14_2 O 0.8739(9) 0.91895(15) 0.7225(3)
C13_2 C 0.8820(9) 0.9162(2) 0.7945(4)
C14_2 C 0.9460(9) 0.95989(19) 0.8367(3)
C15_5 C 1.000000 1.000000 0.7966(5)
H13_5 H 0.999997 1.000001 0.741982
C16_2 C 0.9483(9) 0.9596(2) 0.9168(4)
H14_2 H 0.914468 0.931809 0.943981
C17_5 C 1.000000 1.000000 0.9569(5)
Co6_2 Co 0.83489(14) 0.87469(3) 0.63922(4)
O25_2 O 0.7512(13) 0.80504(18) 0.9203(3)
O26_2 O 0.9288(16) 0.9283(2) 0.5744(4)
O27_2 O 0.6688(9) 0.75573(17) 0.7931(3)
O29_2 O 0.7239(7) 0.82614(14) 0.7003(2)
O30_2 O 0.7676(9) 0.84664(16) 0.5420(2)
O31 O 0.7514(9) 0.78694(16) 0.4610(3)
C25_2 C 0.6336(10) 0.7453(2) 0.7235(4)
C26_2 C 0.6480(10) 0.7850(2) 0.6651(4)
H29_2 H 0.515555 0.792426 0.646671
C27_2 C 0.7670(11) 0.7685(2) 0.5955(3)
H30_2 H 0.902200 0.764524 0.611613
H31_2 H 0.719060 0.737363 0.578457
C28_2 C 0.7593(11) 0.8023(2) 0.5285(3)
O7_2 O 0.7486(9) 0.28694(16) 0.0390(3)
O23_2 O 0.2514(9) 0.71306(16) 0.0390(3)
O31_2 O 0.2514(9) 0.28694(16) 0.9610(3)
O39_2 O 0.7486(9) 0.71306(16) 0.9610(3)
loop_
_geom_bond_atom_site_label_1
_geom_bond_atom_site_label_2
_geom_bond_site_symmetry_1
_geom_bond_site_symmetry_2
Co1 O1 1_555 1_555
Co2 O2 1_555 1_555
O3 Co1 1_555 1_555
O4 C1 1_555 1_555
O5 Co1 1_555 1_555
O6 Co2 1_555 1_555
C1 O3 1_555 1_555
C2 O5 1_555 1_555
H5 C2 1_555 1_555
C3 C2 1_555 1_555
H6 C3 1_555 1_555
H7 C3 1_555 1_555
C4 O6 1_555 1_555
O8 Co1 1_555 1_555
O9 Co2 1_555 1_555
C5 O8 1_555 1_555
C6 C5 1_555 1_555
C7 C6 1_555 1_555
H8 C7 1_555 1_555
C8 C6 1_555 1_555
H9 C8 1_555 1_555
C9 C8 1_555 1_555
O10 Co2 1_555 1_555
O11 C10 1_555 1_555
O12 C10 1_555 1_555
C10 C11 1_555 1_555
C11 C7 1_555 1_555
C12 C9 1_555 1_555
H12 C12 1_555 1_555
O13 C13 1_555 1_555
O14 C13 1_555 1_555
C13 C14 1_555 1_555
C14 C15 1_555 1_555
C15 H13 1_555 1_555
C16 C14 1_555 1_555
H14 C16 1_555 1_555
C17 C9 1_555 1_555
O15 C18 1_555 1_555
O16 C18 1_555 1_555
C18 C19 1_555 1_555
C19 C15 1_555 1_555
C20 C17 1_555 1_555
H15 C20 1_555 1_555
Co3 O11 1_555 1_555
Co4 O12 1_555 1_555
O17 Co3 1_555 1_555
O18 Co4 1_555 1_555
O19 Co3 1_555 1_555
O20 C21 1_555 1_555
O21 Co3 1_555 1_555
O22 Co4 1_555 1_555
C21 O19 1_555 1_555
C22 O21 1_555 1_555
H20 C22 1_555 1_555
C23 C22 1_555 1_555
H21 C23 1_555 1_555
H22 C23 1_555 1_555
C24 O22 1_555 1_555
O24 Co4 1_555 1_555
Co5 O13 1_555 1_555
Co6 O14 1_555 1_555
O25 Co5 1_555 1_555
O26 Co6 1_555 1_555
O27 Co5 1_555 1_555
O28 C25 1_555 1_555
O29 Co5 1_555 1_555
O30 Co6 1_555 1_555
C25 O27 1_555 1_555
C26 O29 1_555 1_555
H29 C26 1_555 1_555
C27 C26 1_555 1_555
H30 C27 1_555 1_555
H31 C27 1_555 1_555
C28 O30 1_555 1_555
O32 Co6 1_555 1_555
Co7 O15 1_555 1_555
Co8 O16 1_555 1_555
O33 Co7 1_555 1_555
O34 Co8 1_555 1_555
O35 Co7 1_555 1_555
O36 C29 1_555 1_555
O37 Co7 1_555 1_555
O38 Co8 1_555 1_555
C29 O35 1_555 1_555
C30 O37 1_555 1_555
H38 C30 1_555 1_555
C31 C30 1_555 1_555
H39 C31 1_555 1_555
H40 C31 1_555 1_555
C32 O38 1_555 1_555
O40 Co8 1_555 1_555
O41 Co7 1_555 1_555
O42 Co5 1_555 1_555
O43 Co3 1_555 1_555
O44 Co1 1_555 1_555
Co2 O5 1_555 1_555
C1 C2 1_555 1_555
C3 C4 1_555 1_555
O9 C5 1_555 1_555
C11 C12 1_555 1_555
C16 C17 1_555 1_555
C19 C20 1_555 1_555
Co4 O21 1_555 1_555
C21 C22 1_555 1_555
C23 C24 1_555 1_555
Co6 O29 1_555 1_555
C25 C26 1_555 1_555
C27 C28 1_555 1_555
Co8 O37 1_555 1_555
C29 C30 1_555 1_555
C31 C32 1_555 1_555
H8_2 C7_2 1_555 1_555
C15_2 H13_2 1_555 1_555
O15_2 C18_2 1_555 1_555
O16_2 C18_2 1_555 1_555
C18_2 C19_2 1_555 1_555
C19_2 C15_2 1_555 1_555
C20_2 C17_2 1_555 1_555
H15_2 C20_2 1_555 1_555
Co12 O15_2 1_555 1_555
Co8_2 O16_2 1_555 1_555
O33_2 Co12 1_555 1_555
O34_2 Co8_2 1_555 1_555
O35_2 Co12 1_555 1_555
O44 C29_2 1_555 1_555
O37_2 Co12 1_555 1_555
O38_2 Co8_2 1_555 1_555
O39 C32_2 1_555 1_555
C29_2 O35_2 1_555 1_555
C30_2 O37_2 1_555 1_555
H38_2 C30_2 1_555 1_555
C31_2 C30_2 1_555 1_555
H39_2 C31_2 1_555 1_555
H40_2 C31_2 1_555 1_555
C32_2 O38_2 1_555 1_555
C19_2 C20_2 1_555 1_555
Co8_2 O37_2 1_555 1_555
C29_2 C30_2 1_555 1_555
C31_2 C32_2 1_555 1_555
Co9 O1_2 1_555 1_555
Co2_2 O2_2 1_555 1_555
O3_2 Co9 1_555 1_555
O41 C1_2 1_555 1_555
O5_2 Co9 1_555 1_555
O6_2 Co2_2 1_555 1_555
O7 C4_2 1_555 1_555
C1_2 O3_2 1_555 1_555
C2_2 O5_2 1_555 1_555
H5_2 C2_2 1_555 1_555
C3_2 C2_2 1_555 1_555
H6_2 C3_2 1_555 1_555
H7_2 C3_2 1_555 1_555
C4_2 O6_2 1_555 1_555
O8_2 Co9 1_555 1_555
O9_2 Co2_2 1_555 1_555
C5_2 O8_2 1_555 1_555
C6_2 C5_2 1_555 1_555
C7_3 C6_2 1_555 1_555
H8_3 C7_3 1_555 1_555
C8_2 C6_2 1_555 1_555
H9_2 C8_2 1_555 1_555
C9_3 C8_2 1_555 1_555
Co2_2 O5_2 1_555 1_555
C1_2 C2_2 1_555 1_555
C3_2 C4_2 1_555 1_555
O9_2 C5_2 1_555 1_555
C15_3 H13_3 1_555 1_555
H8_4 C7_4 1_555 1_555
O11_2 C10_2 1_555 1_555
O12_2 C10_2 1_555 1_555
C10_2 C11_2 1_555 1_555
C11_2 C7_4 1_555 1_555
C12_2 C9_4 1_555 1_555
H12_2 C12_2 1_555 1_555
Co10 O11_2 1_555 1_555
Co4_2 O12_2 1_555 1_555
O17_2 Co10 1_555 1_555
O18_2 Co4_2 1_555 1_555
O19_2 Co10 1_555 1_555
O42 C21_2 1_555 1_555
O21_2 Co10 1_555 1_555
O22_2 Co4_2 1_555 1_555
O23 C24_2 1_555 1_555
C21_2 O19_2 1_555 1_555
C22_2 O21_2 1_555 1_555
H20_2 C22_2 1_555 1_555
C23_2 C22_2 1_555 1_555
H21_2 C23_2 1_555 1_555
H22_2 C23_2 1_555 1_555
C24_2 O22_2 1_555 1_555
C11_2 C12_2 1_555 1_555
Co4_2 O21_2 1_555 1_555
C21_2 C22_2 1_555 1_555
C23_2 C24_2 1_555 1_555
C15_4 H13_4 1_555 1_555
H8_5 C7_5 1_555 1_555
O13_2 C13_2 1_555 1_555
O14_2 C13_2 1_555 1_555
C13_2 C14_2 1_555 1_555
C14_2 C15_5 1_555 1_555
C15_5 H13_5 1_555 1_555
C16_2 C14_2 1_555 1_555
H14_2 C16_2 1_555 1_555
Co11 O13_2 1_555 1_555
Co6_2 O14_2 1_555 1_555
O25_2 Co11 1_555 1_555
O26_2 Co6_2 1_555 1_555
O27_2 Co11 1_555 1_555
O43 C25_2 1_555 1_555
O29_2 Co11 1_555 1_555
O30_2 Co6_2 1_555 1_555
O31 C28_2 1_555 1_555
C25_2 O27_2 1_555 1_555
C26_2 O29_2 1_555 1_555
H29_2 C26_2 1_555 1_555
C27_2 C26_2 1_555 1_555
H30_2 C27_2 1_555 1_555
H31_2 C27_2 1_555 1_555
C28_2 O30_2 1_555 1_555
C16_2 C17_5 1_555 1_555
Co6_2 O29_2 1_555 1_555
C25_2 C26_2 1_555 1_555
C27_2 C28_2 1_555 1_555

#END
