
###############################################################################
#
# This file contains modified crystal structure data generated from the
# MOF subset of the Cambridge Structural Database (CSD) v542 
# hosted by the Cambridge Crystallographic Data Centre (CCDC).
#
# This work is licensed under the Creative Commons
# Attribution-NonCommercial-ShareAlike 4.0 International License.
# To view a copy of this license, visit
# http://creativecommons.org/licenses/by-nc-sa/4.0/
# or send a letter to
# Creative Commons, PO Box 1866, Mountain View, CA 94042, USA.
#
# CIF created using the CSD Python API on 22 February 2021
# The structure has been converted into the P1 space group
# The structure has a 3D framework
# The original CSD entry WUWBUO is in the triclinic crystal system
# The framework has been calculated to contain at least 10.0% void space
# The void calculation uses a probe of radius 1.32A, grid spacing 0.4
#
###############################################################################

data_WUWBUO
_chemical_formula_moiety         '(C46 H26 N6 O8 Zn2)n'
_symmetry_cell_setting           triclinic
_symmetry_space_group_name_H-M   'P 1'
_symmetry_Int_Tables_number      1
_space_group_name_Hall           'P 1'
loop_
_symmetry_equiv_pos_site_id
_symmetry_equiv_pos_as_xyz
1 x,y,z
_cell_length_a                   10.1188(7)
_cell_length_b                   10.9420(11)
_cell_length_c                   11.7024(10)
_cell_angle_alpha                63.853(9)
_cell_angle_beta                 82.358(6)
_cell_angle_gamma                72.588(7)
_cell_volume                     1109.8
loop_
_atom_site_label
_atom_site_type_symbol
_atom_site_fract_x
_atom_site_fract_y
_atom_site_fract_z
N2 N 0.1222(3) 0.1238(3) 0.4345(3)
C3 C 0.0142(3) 0.1629(4) 0.5013(4)
C6 C 0.0070(3) 0.0983(4) 0.6315(4)
C7 C 0.2308(3) 0.0179(4) 0.5002(4)
C20 C 0.3287(4) 0.0304(4) 0.2889(4)
H10 H 0.254038 0.111178 0.248508
H11 H 0.406872 0.015951 0.128360
H12 H 0.002868 0.320315 0.253829
O2 O 0.4705(2) 0.7897(3) 0.0554(3)
O4 O 0.3650(2) 0.6847(3) 0.2363(3)
C1 C 0.2357(3) 0.8013(4) 0.0443(4)
C5 C 0.1135(3) 0.7764(4) 0.1066(4)
H1 H 0.112171 0.727850 0.196758
C19 C 0.3657(4) 0.7536(4) 0.1194(4)
Zn4 Zn 0.62017(4) 0.74832(5) 0.16835(4)
N3 N 0.5311(3) 0.8627(3) 0.2684(3)
C4 C 0.3427(3) 0.9701(4) 0.4214(4)
C9 C 0.2368(3) 0.8724(4) 0.9114(4)
H4 H 0.320152 0.890453 0.868517
C10 C 0.1173(3) 0.9167(4) 0.8418(4)
C13 C 0.2329(3) 0.9505(4) 0.6320(4)
H5 H 0.312105 0.877634 0.674962
C15 C 0.1190(3) 0.9895(4) 0.7014(4)
C17 C 0.5521(4) 0.8112(4) 0.3934(4)
H8 H 0.632938 0.736805 0.429806
C18 C 0.4615(3) 0.8613(4) 0.4716(4)
H9 H 0.480413 0.821323 0.560065
C21 C 0.4207(4) 0.9745(4) 0.2178(4)
N1 N 0.7114(3) 0.5389(3) 0.2706(3)
H2 H 0.925702 0.127501 0.674206
C8 C 0.6876(4) 0.4660(4) 0.3913(4)
H3 H 0.602451 0.500104 0.426701
C12 C 0.9015(4) 0.2886(4) 0.4211(4)
C16 C 0.7790(4) 0.3425(4) 0.4701(4)
H7 H 0.757168 0.295330 0.557412
C22 C 0.9232(4) 0.3584(5) 0.2930(4)
C23 C 0.8300(5) 0.4832(5) 0.2212(5)
H13 H 0.849510 0.532166 0.133567
O1 O 0.7621(2) 0.8138(3) 0.0417(3)
O3 O 0.8546(3) 0.7603(3) 0.2239(3)
C2 C 0.9939(3) 0.8217(4) 0.0381(4)
C11 C 0.8615(4) 0.7967(4) 0.1078(4)
C14 C 0.9966(3) 0.8899(4) 0.9073(4)
H6 H 0.914101 0.919322 0.860687
C14_2 C 0.0034(3) 0.1101(4) 0.0927(4)
H6_2 H 0.085899 0.080678 0.139313
Zn1 Zn 0.37983(4) 0.25168(5) 0.83165(4)
O1_2 O 0.2379(2) 0.1862(3) 0.9583(3)
O3_2 O 0.1454(3) 0.2397(3) 0.7761(3)
C2_2 C 0.0061(3) 0.1783(4) 0.9619(4)
C11_2 C 0.1385(4) 0.2033(4) 0.8922(4)
O5 O 0.5295(2) 0.2103(3) 0.9446(3)
N4 N 0.2886(3) 0.4611(3) 0.7294(3)
N5 N 0.4689(3) 0.1373(3) 0.7316(3)
H2_2 H 0.074298 0.872499 0.325794
C8_2 C 0.3124(4) 0.5340(4) 0.6087(4)
H3_2 H 0.397549 0.499896 0.573299
C12_2 C 0.0985(4) 0.7114(4) 0.5789(4)
C16_2 C 0.2210(4) 0.6575(4) 0.5299(4)
H7_2 H 0.242832 0.704670 0.442588
C22_2 C 0.0768(4) 0.6416(5) 0.7070(4)
C23_2 C 0.1700(5) 0.5168(5) 0.7788(5)
H13_2 H 0.150490 0.467834 0.866433
C4_2 C 0.6573(3) 0.0299(4) 0.5786(4)
C9_2 C 0.7632(3) 0.1276(4) 0.0886(4)
H4_2 H 0.679848 0.109547 0.131483
C10_2 C 0.8827(3) 0.0833(4) 0.1582(4)
C13_2 C 0.7671(3) 0.0495(4) 0.3680(4)
H5_2 H 0.687895 0.122366 0.325038
C15_2 C 0.8810(3) 0.0105(4) 0.2986(4)
C17_2 C 0.4479(4) 0.1888(4) 0.6066(4)
H8_2 H 0.367062 0.263195 0.570194
C18_2 C 0.5385(3) 0.1387(4) 0.5284(4)
H9_2 H 0.519587 0.178677 0.439935
C21_2 C 0.5793(4) 0.0255(4) 0.7822(4)
O4_2 O 0.6350(2) 0.3153(3) 0.7637(3)
C1_2 C 0.7643(3) 0.1987(4) 0.9557(4)
C5_2 C 0.8865(3) 0.2236(4) 0.8934(4)
H1_2 H 0.887829 0.272150 0.803242
C19_2 C 0.6343(4) 0.2464(4) 0.8806(4)
N2_2 N 0.8778(3) 0.8762(3) 0.5655(3)
C3_2 C 0.9858(3) 0.8371(4) 0.4987(4)
C6_2 C 0.9930(3) 0.9017(4) 0.3685(4)
C7_2 C 0.7692(3) 0.9821(4) 0.4998(4)
C20_2 C 0.6713(4) 0.9696(4) 0.7111(4)
H10_2 H 0.745962 0.888822 0.751492
H11_2 H 0.593128 0.984049 0.871640
H12_2 H 0.997132 0.679685 0.746171
loop_
_geom_bond_atom_site_label_1
_geom_bond_atom_site_label_2
_geom_bond_site_symmetry_1
_geom_bond_site_symmetry_2
N2 C3 1_555 1_555
C3 C6 1_555 1_555
C7 N2 1_555 1_555
H10 C20 1_555 1_555
O2 C19 1_555 1_555
O4 C19 1_555 1_555
C1 C5 1_555 1_555
C5 H1 1_555 1_555
C19 C1 1_555 1_555
Zn4 O2 1_555 1_555
N3 C17 1_555 1_555
H4 C9 1_555 1_555
C10 C9 1_555 1_555
H5 C13 1_555 1_555
C17 H8 1_555 1_555
C18 C4 1_555 1_555
H9 C18 1_555 1_555
C21 N3 1_555 1_555
Zn4 N3 1_555 1_555
C10 C15 1_555 1_555
C13 C15 1_555 1_555
C17 C18 1_555 1_555
N1 C8 1_555 1_555
C8 H3 1_555 1_555
C16 C8 1_555 1_555
H7 C16 1_555 1_555
C22 C12 1_555 1_555
C23 N1 1_555 1_555
H13 C23 1_555 1_555
Zn4 N1 1_555 1_555
C12 C16 1_555 1_555
C22 C23 1_555 1_555
Zn4 O1 1_555 1_555
O1 C11 1_555 1_555
O3 C11 1_555 1_555
C11 C2 1_555 1_555
H6 C14 1_555 1_555
H6_2 C14_2 1_555 1_555
Zn1 O1_2 1_555 1_555
O1_2 C11_2 1_555 1_555
O3_2 C11_2 1_555 1_555
C11_2 C2_2 1_555 1_555
O5 Zn1 1_555 1_555
N4 Zn1 1_555 1_555
N5 Zn1 1_555 1_555
N4 C8_2 1_555 1_555
C8_2 H3_2 1_555 1_555
C16_2 C8_2 1_555 1_555
H7_2 C16_2 1_555 1_555
C22_2 C12_2 1_555 1_555
C23_2 N4 1_555 1_555
H13_2 C23_2 1_555 1_555
C12_2 C16_2 1_555 1_555
C22_2 C23_2 1_555 1_555
N5 C17_2 1_555 1_555
H4_2 C9_2 1_555 1_555
C10_2 C9_2 1_555 1_555
H5_2 C13_2 1_555 1_555
C17_2 H8_2 1_555 1_555
C18_2 C4_2 1_555 1_555
H9_2 C18_2 1_555 1_555
C21_2 N5 1_555 1_555
C10_2 C15_2 1_555 1_555
C13_2 C15_2 1_555 1_555
C17_2 C18_2 1_555 1_555
O5 C19_2 1_555 1_555
O4_2 C19_2 1_555 1_555
C1_2 C5_2 1_555 1_555
C5_2 H1_2 1_555 1_555
C19_2 C1_2 1_555 1_555
N2_2 C3_2 1_555 1_555
C3_2 C6_2 1_555 1_555
C7_2 N2_2 1_555 1_555
H10_2 C20_2 1_555 1_555

#END
