
###############################################################################
#
# This file contains modified crystal structure data generated from the
# MOF subset of the Cambridge Structural Database (CSD) v542 
# hosted by the Cambridge Crystallographic Data Centre (CCDC).
#
# This work is licensed under the Creative Commons
# Attribution-NonCommercial-ShareAlike 4.0 International License.
# To view a copy of this license, visit
# http://creativecommons.org/licenses/by-nc-sa/4.0/
# or send a letter to
# Creative Commons, PO Box 1866, Mountain View, CA 94042, USA.
#
# CIF created using the CSD Python API on 22 February 2021
# The structure has been converted into the P1 space group
# The structure has a 3D framework
# The original CSD entry WUWBOI is in the tetragonal crystal system
# The original CSD entry WUWBOI is in a Sohncke space group
# The framework has been calculated to contain at least 10.0% void space
# The void calculation uses a probe of radius 1.32A, grid spacing 0.4
#
###############################################################################

data_WUWBOI
_chemical_formula_moiety         '(C184 H104 Mn8 N24 O32)n'
_symmetry_cell_setting           triclinic
_symmetry_space_group_name_H-M   'P 1'
_symmetry_Int_Tables_number      1
_space_group_name_Hall           'P 1'
loop_
_symmetry_equiv_pos_site_id
_symmetry_equiv_pos_as_xyz
1 x,y,z
_cell_length_a                   17.3875(9)
_cell_length_b                   17.3875(9)
_cell_length_c                   18.3017(9)
_cell_angle_alpha                90
_cell_angle_beta                 90
_cell_angle_gamma                90
_cell_volume                     5533.06
loop_
_atom_site_label
_atom_site_type_symbol
_atom_site_fract_x
_atom_site_fract_y
_atom_site_fract_z
C1 C 0.1699(5) 0.0564(5) 0.2419(4)
C3 C 0.0372(5) 0.1068(5) 0.0883(3)
C4 C 0.2330(5) 0.1524(5) 0.1668(4)
C7 C 0.1081(5) 0.0587(4) 0.1958(3)
H2 H 0.066699 0.026363 0.205476
C10 C 0.2342(5) 0.1050(5) 0.2284(4)
H4 H 0.276215 0.105117 0.259825
O3 O 0.3139(4) 0.2265(4) 0.0883(3)
C13 C 0.0254(5) 0.1676(5) 0.0383(3)
H6 H 0.059915 0.208448 0.036287
C15 C 0.1037(5) 0.1063(4) 0.1356(3)
O4 O 0.3390(4) 0.2253(4) 0.2063(3)
C17 C 0.3003(6) 0.2045(5) 0.1520(5)
C18 C 0.1679(5) 0.1506(4) 0.1234(4)
H8 H 0.167469 0.182183 0.082371
Mn2 Mn 0.40014(7) 0.31881(8) 0.15838(5)
O1 O 0.1148(3) 0.9683(3) 0.3257(2)
O2 O 0.2388(3) 0.9855(3) 0.3328(2)
C8 C 0.1769(5) 0.9990(5) 0.3055(3)
Mn3 Mn 0.18119(8) 0.90014(7) 0.40838(5)
Mn1 Mn 0.81881(8) 0.09986(7) 0.90838(5)
N1 N 0.9114(4) 0.1088(4) 0.9941(3)
C5 C 0.9616(5) 0.1659(4) 0.9919(3)
C9 C 0.9909(5) 0.2909(5) 0.9285(4)
C11 C 0.8826(6) 0.2595(5) 0.8295(4)
H5 H 0.844514 0.248570 0.795369
C12 C 0.9497(5) 0.2233(4) 0.9338(4)
N3 N 0.8935(4) 0.2073(4) 0.8848(3)
C20 C 0.9219(5) 0.3240(6) 0.8206(4)
H10 H 0.911626 0.356060 0.781100
C22 C 0.9784(6) 0.3434(6) 0.8704(5)
O5 O 0.8852(3) 0.0317(3) 0.8257(2)
O6 O 0.7612(3) 0.0145(3) 0.8328(2)
O7 O 0.7253(4) 0.1610(4) 0.9563(3)
O1_2 O 0.5317(3) 0.6148(3) 0.5757(2)
O2_2 O 0.5145(3) 0.7388(3) 0.5828(2)
C1_2 C 0.4436(5) 0.6699(5) 0.4919(4)
C2 C 0.4488(5) 0.4215(5) 0.2937(4)
C3_2 C 0.3932(5) 0.5372(5) 0.3383(3)
N1_2 N 0.3912(4) 0.4114(4) 0.2441(3)
C4_2 C 0.3476(5) 0.7330(5) 0.4168(4)
C5_2 C 0.3341(4) 0.4616(5) 0.2419(3)
C6 C 0.4502(5) 0.4812(5) 0.3381(3)
H1 H 0.491069 0.486078 0.370632
C7_2 C 0.4413(4) 0.6081(5) 0.4458(3)
H2_2 H 0.473637 0.566699 0.455476
C8_2 C 0.5010(5) 0.6769(5) 0.5555(3)
C9_2 C 0.2091(5) 0.4909(5) 0.1785(4)
H3 H 0.197681 0.527670 0.213855
C10_2 C 0.3950(5) 0.7342(5) 0.4784(4)
H4_2 H 0.394883 0.776215 0.509825
O3_2 O 0.2735(4) 0.8139(4) 0.3383(3)
C11_2 C 0.2405(5) 0.3826(6) 0.0795(4)
H5_2 H 0.251430 0.344514 0.045369
C12_2 C 0.2767(4) 0.4497(5) 0.1838(4)
C13_2 C 0.3324(5) 0.5254(5) 0.2883(3)
H6_2 H 0.291552 0.559915 0.286287
C14 C 0.5078(5) 0.3594(5) 0.2924(4)
C15_2 C 0.3937(4) 0.6037(5) 0.3856(3)
N2 N 0.5029(4) 0.3052(4) 0.2400(3)
O4_2 O 0.2747(4) 0.8390(4) 0.4563(3)
C16 C 0.5698(5) 0.3584(5) 0.3414(4)
H7 H 0.574476 0.397420 0.375885
C17_2 C 0.2955(5) 0.8003(6) 0.4020(5)
C18_2 C 0.3494(4) 0.6679(5) 0.3734(4)
H8_2 H 0.317817 0.667469 0.332371
N3_2 N 0.2927(4) 0.3935(4) 0.1348(3)
C19 C 0.6246(6) 0.2994(7) 0.3393(5)
H9 H 0.665745 0.298543 0.371760
C20_2 C 0.1760(6) 0.4219(5) 0.0706(4)
H10_2 H 0.143940 0.411626 0.031100
C21 C 0.5543(6) 0.2469(7) 0.2371(5)
H11 H 0.548411 0.209573 0.201133
C22_2 C 0.1566(6) 0.4784(6) 0.1204(5)
H12 H 0.111448 0.506717 0.116034
C23 C 0.6150(8) 0.2404(7) 0.2851(5)
H13 H 0.648823 0.199072 0.282535
Mn3_2 Mn 0.59986(7) 0.68119(8) 0.65838(5)
O5_2 O 0.4683(3) 0.3852(3) 0.0757(2)
O6_2 O 0.4855(3) 0.2612(3) 0.0828(2)
C2_2 C 0.0785(5) 0.9488(5) 0.5437(4)
N1_3 N 0.0886(4) 0.8912(4) 0.4941(3)
C5_3 C 0.0384(5) 0.8341(4) 0.4919(3)
C6_2 C 0.0188(5) 0.9502(5) 0.5881(3)
H1_2 H 0.013922 0.991069 0.620632
C9_3 C 0.0091(5) 0.7091(5) 0.4285(4)
C11_3 C 0.1174(6) 0.7405(5) 0.3295(4)
H5_3 H 0.155486 0.751430 0.295369
C12_3 C 0.0503(5) 0.7767(4) 0.4338(4)
N3_3 N 0.1065(4) 0.7927(4) 0.3848(3)
C20_3 C 0.0781(5) 0.6760(6) 0.3206(4)
H10_3 H 0.088374 0.643940 0.281100
C22_3 C 0.0216(6) 0.6566(6) 0.3704(5)
C8_3 C 0.8231(5) 0.0010(5) 0.8055(3)
C1_3 C 0.8301(5) 0.9436(5) 0.7419(4)
C3_3 C 0.9628(5) 0.8932(5) 0.5883(3)
C4_3 C 0.7670(5) 0.8476(5) 0.6668(4)
C7_3 C 0.8919(5) 0.9413(4) 0.6958(3)
H2_3 H 0.933301 0.973637 0.705476
H3_2 H 0.972330 0.697681 0.463855
C10_3 C 0.7658(5) 0.8950(5) 0.7284(4)
H4_3 H 0.723785 0.894883 0.759825
O3_3 O 0.6861(4) 0.7735(4) 0.5883(3)
C13_3 C 0.9746(5) 0.8324(5) 0.5383(3)
H6_3 H 0.940085 0.791552 0.536287
C15_3 C 0.8963(5) 0.8937(4) 0.6356(3)
O4_3 O 0.6610(4) 0.7747(4) 0.7063(3)
C17_3 C 0.6997(6) 0.7955(5) 0.6520(5)
C18_3 C 0.8321(5) 0.8494(4) 0.6234(4)
H8_3 H 0.832531 0.817817 0.582371
H12_2 H 0.993283 0.611448 0.366034
C8_4 C 0.4990(5) 0.3231(5) 0.0555(3)
H4_4 H 0.605117 0.223785 0.009825
C1_4 C 0.5564(5) 0.3301(5) 0.9919(4)
C2_3 C 0.5512(5) 0.5785(5) 0.7937(4)
C3_4 C 0.6068(5) 0.4628(5) 0.8383(3)
N1_4 N 0.6088(4) 0.5886(4) 0.7441(3)
C4_4 C 0.6524(5) 0.2670(5) 0.9168(4)
C5_4 C 0.6659(4) 0.5384(5) 0.7419(3)
C6_3 C 0.5498(5) 0.5188(5) 0.8381(3)
H1_3 H 0.508931 0.513922 0.870632
C7_4 C 0.5587(4) 0.3919(5) 0.9458(3)
H2_4 H 0.526363 0.433301 0.955476
C9_4 C 0.7909(5) 0.5091(5) 0.6785(4)
H3_3 H 0.802319 0.472330 0.713855
C10_4 C 0.6050(5) 0.2658(5) 0.9784(4)
O3_4 O 0.7265(4) 0.1861(4) 0.8383(3)
C11_4 C 0.7595(5) 0.6174(6) 0.5795(4)
H5_4 H 0.748570 0.655486 0.545369
C12_4 C 0.7233(4) 0.5503(5) 0.6838(4)
C13_4 C 0.6676(5) 0.4746(5) 0.7883(3)
H6_4 H 0.708448 0.440085 0.786287
C14_2 C 0.4922(5) 0.6406(5) 0.7924(4)
C15_4 C 0.6063(4) 0.3963(5) 0.8856(3)
N2_2 N 0.4971(4) 0.6948(4) 0.7400(3)
C16_2 C 0.4302(5) 0.6416(5) 0.8414(4)
H7_2 H 0.425524 0.602580 0.875885
C17_4 C 0.7045(5) 0.1997(6) 0.9020(5)
C18_4 C 0.6506(4) 0.3321(5) 0.8734(4)
H8_4 H 0.682183 0.332531 0.832371
N3_4 N 0.7073(4) 0.6065(4) 0.6348(3)
C19_2 C 0.3754(6) 0.7006(7) 0.8393(5)
H9_2 H 0.334255 0.701457 0.871760
C20_4 C 0.8240(6) 0.5781(5) 0.5706(4)
H10_4 H 0.856060 0.588374 0.531100
C21_2 C 0.4457(6) 0.7531(7) 0.7371(5)
H11_2 H 0.451589 0.790427 0.701133
C22_4 C 0.8434(6) 0.5216(6) 0.6204(5)
H12_3 H 0.888552 0.493283 0.616034
C23_2 C 0.3850(8) 0.7596(7) 0.7851(5)
H13_2 H 0.351177 0.800928 0.782535
H3_4 H 0.027670 0.302319 0.963855
H12_4 H 0.006717 0.388552 0.866034
C2_4 C 0.9215(5) 0.0512(5) 0.0437(4)
C6_4 C 0.9812(5) 0.0498(5) 0.0881(3)
H1_4 H 0.986078 0.008931 0.120632
C14_3 C 0.8594(5) 0.9922(5) 0.0424(4)
C16_3 C 0.8584(5) 0.9302(5) 0.0914(4)
H7_3 H 0.897420 0.925524 0.125885
C19_3 C 0.7994(7) 0.8754(6) 0.0893(5)
H9_3 H 0.798543 0.834255 0.121760
C23_3 C 0.7404(7) 0.8850(8) 0.0351(5)
H13_3 H 0.699072 0.851177 0.032535
N2_3 N 0.8052(4) 0.9971(4) 0.9900(3)
C21_3 C 0.7469(7) 0.9457(6) 0.9871(5)
H11_3 H 0.709573 0.951589 0.951133
C14_4 C 0.1406(5) 0.0078(5) 0.5424(4)
N2_4 N 0.1948(4) 0.0029(4) 0.4900(3)
C16_4 C 0.1416(5) 0.0698(5) 0.5914(4)
H7_4 H 0.102580 0.074476 0.625885
C19_4 C 0.2006(7) 0.1246(6) 0.5893(5)
H9_4 H 0.201457 0.165745 0.621760
C21_4 C 0.2531(7) 0.0543(6) 0.4871(5)
H11_4 H 0.290427 0.048411 0.451133
C23_4 C 0.2596(7) 0.1150(8) 0.5351(5)
H13_4 H 0.300928 0.148823 0.532535
Mn1_2 Mn 0.31881(8) 0.40014(7) 0.84162(5)
O1_3 O 0.6148(3) 0.5317(3) 0.4243(2)
O2_3 O 0.7388(3) 0.5145(3) 0.4172(2)
C1_5 C 0.6699(5) 0.4436(5) 0.5081(4)
C2_5 C 0.4215(5) 0.4488(5) 0.7063(4)
C3_5 C 0.5372(5) 0.3932(5) 0.6617(3)
N1_5 N 0.4114(4) 0.3912(4) 0.7559(3)
C4_5 C 0.7330(5) 0.3476(5) 0.5832(4)
C5_5 C 0.4616(5) 0.3341(4) 0.7581(3)
C6_5 C 0.4812(5) 0.4502(5) 0.6619(3)
H1_5 H 0.486078 0.491069 0.629368
C7_5 C 0.6081(5) 0.4413(4) 0.5542(3)
H2_5 H 0.566699 0.473637 0.544524
C8_5 C 0.6769(5) 0.5010(5) 0.4445(3)
C9_5 C 0.4909(5) 0.2091(5) 0.8215(4)
H3_5 H 0.527670 0.197681 0.786145
C10_5 C 0.7342(5) 0.3950(5) 0.5216(4)
H4_5 H 0.776215 0.394883 0.490175
O3_5 O 0.8139(4) 0.2735(4) 0.6617(3)
C11_5 C 0.3826(6) 0.2405(5) 0.9205(4)
H5_5 H 0.344514 0.251430 0.954631
C12_5 C 0.4497(5) 0.2767(4) 0.8162(4)
C13_5 C 0.5254(5) 0.3324(5) 0.7117(3)
H6_5 H 0.559915 0.291552 0.713713
C14_5 C 0.3594(5) 0.5078(5) 0.7076(4)
C15_5 C 0.6037(5) 0.3937(4) 0.6144(3)
N2_5 N 0.3052(4) 0.5029(4) 0.7600(3)
O4_4 O 0.8390(4) 0.2747(4) 0.5437(3)
C16_5 C 0.3584(5) 0.5698(5) 0.6586(4)
H7_5 H 0.397420 0.574476 0.624115
C17_5 C 0.8003(6) 0.2955(5) 0.5980(5)
C18_5 C 0.6679(5) 0.3494(4) 0.6266(4)
H8_5 H 0.667469 0.317817 0.667629
N3_5 N 0.3935(4) 0.2927(4) 0.8652(3)
C19_5 C 0.2994(7) 0.6246(6) 0.6607(5)
H9_5 H 0.298543 0.665745 0.628240
C20_5 C 0.4219(5) 0.1760(6) 0.9294(4)
H10_5 H 0.411626 0.143940 0.968900
C21_5 C 0.2469(7) 0.5543(6) 0.7629(5)
H11_5 H 0.209573 0.548411 0.798867
C22_5 C 0.4784(6) 0.1566(6) 0.8796(5)
H12_5 H 0.506717 0.111448 0.883966
C23_5 C 0.2404(7) 0.6150(8) 0.7149(5)
H13_5 H 0.199072 0.648823 0.717465
Mn2_2 Mn 0.90014(7) 0.18119(8) 0.59162(5)
Mn3_3 Mn 0.68119(8) 0.59986(7) 0.34162(5)
O5_3 O 0.3852(3) 0.4683(3) 0.9243(2)
O6_3 O 0.2612(3) 0.4855(3) 0.9172(2)
O7_2 O 0.2253(4) 0.3390(4) 0.7937(3)
C1_6 C 0.3301(5) 0.5564(5) 0.0081(4)
C2_6 C 0.5785(5) 0.5512(5) 0.2063(4)
C3_6 C 0.4628(5) 0.6068(5) 0.1617(3)
N1_6 N 0.5886(4) 0.6088(4) 0.2559(3)
C4_6 C 0.2670(5) 0.6524(5) 0.0832(4)
C5_6 C 0.5384(5) 0.6659(4) 0.2581(3)
C6_6 C 0.5188(5) 0.5498(5) 0.1619(3)
H1_6 H 0.513922 0.508931 0.129368
C7_6 C 0.3919(5) 0.5587(4) 0.0542(3)
H2_6 H 0.433301 0.526363 0.044524
C9_6 C 0.5091(5) 0.7909(5) 0.3215(4)
H3_6 H 0.472330 0.802319 0.286145
C10_6 C 0.2658(5) 0.6050(5) 0.0216(4)
O3_6 O 0.1861(4) 0.7265(4) 0.1617(3)
C11_6 C 0.6174(6) 0.7595(5) 0.4205(4)
H5_6 H 0.655486 0.748570 0.454631
C12_6 C 0.5503(5) 0.7233(4) 0.3162(4)
C13_6 C 0.4746(5) 0.6676(5) 0.2117(3)
H6_6 H 0.440085 0.708448 0.213713
C14_6 C 0.6406(5) 0.4922(5) 0.2076(4)
C15_6 C 0.3963(5) 0.6063(4) 0.1144(3)
N2_6 N 0.6948(4) 0.4971(4) 0.2600(3)
O4_5 O 0.1610(4) 0.7253(4) 0.0437(3)
C16_6 C 0.6416(5) 0.4302(5) 0.1586(4)
H7_6 H 0.602580 0.425524 0.124115
C17_6 C 0.1997(6) 0.7045(5) 0.0980(5)
C18_6 C 0.3321(5) 0.6506(4) 0.1266(4)
H8_6 H 0.332531 0.682183 0.167629
N3_6 N 0.6065(4) 0.7073(4) 0.3652(3)
C19_6 C 0.7006(7) 0.3754(6) 0.1607(5)
H9_6 H 0.701457 0.334255 0.128240
C20_6 C 0.5781(5) 0.8240(6) 0.4294(4)
H10_6 H 0.588374 0.856060 0.468900
C21_6 C 0.7531(7) 0.4457(6) 0.2629(5)
H11_6 H 0.790427 0.451589 0.298867
C22_6 C 0.5216(6) 0.8434(6) 0.3796(5)
H12_6 H 0.493283 0.888552 0.383966
C23_6 C 0.7596(7) 0.3850(8) 0.2149(5)
H13_6 H 0.800928 0.351177 0.217465
Mn2_3 Mn 0.09986(7) 0.81881(8) 0.09162(5)
O7_3 O 0.7747(4) 0.6610(4) 0.2937(3)
C8_6 C 0.3231(5) 0.4990(5) 0.9445(3)
H4_6 H 0.223785 0.605117 0.990175
C1_7 C 0.0564(5) 0.1699(5) 0.7581(4)
C3_7 C 0.1068(5) 0.0372(5) 0.9117(3)
C4_7 C 0.1524(5) 0.2330(5) 0.8332(4)
C7_7 C 0.0587(4) 0.1081(5) 0.8042(3)
H2_7 H 0.026363 0.066699 0.794524
C10_7 C 0.1050(5) 0.2342(5) 0.7716(4)
H4_7 H 0.105117 0.276215 0.740175
O3_7 O 0.2265(4) 0.3139(4) 0.9117(3)
C13_7 C 0.1676(5) 0.0254(5) 0.9617(3)
H6_7 H 0.208448 0.059915 0.963713
C15_7 C 0.1063(4) 0.1037(5) 0.8644(3)
C17_7 C 0.2045(5) 0.3003(6) 0.8480(5)
C18_7 C 0.1506(4) 0.1679(5) 0.8766(4)
H8_7 H 0.182183 0.167469 0.917629
N1_7 N 0.1088(4) 0.9114(4) 0.0059(3)
C5_7 C 0.1659(4) 0.9616(5) 0.0081(3)
C9_7 C 0.2909(5) 0.9909(5) 0.0715(4)
C11_7 C 0.2595(5) 0.8826(6) 0.1705(4)
H5_7 H 0.248570 0.844514 0.204631
C12_7 C 0.2233(4) 0.9497(5) 0.0662(4)
N3_7 N 0.2073(4) 0.8935(4) 0.1152(3)
C20_7 C 0.3240(6) 0.9219(5) 0.1794(4)
H10_7 H 0.356060 0.911626 0.218900
C22_7 C 0.3434(6) 0.9784(6) 0.1296(5)
O5_4 O 0.0317(3) 0.8852(3) 0.1743(2)
O6_4 O 0.0145(3) 0.7612(3) 0.1672(2)
O1_4 O 0.9683(3) 0.1148(3) 0.6743(2)
O2_4 O 0.9855(3) 0.2388(3) 0.6672(2)
C8_7 C 0.9990(5) 0.1769(5) 0.6945(3)
C8_8 C 0.0010(5) 0.8231(5) 0.1945(3)
C2_7 C 0.9488(5) 0.0785(5) 0.4563(4)
N1_8 N 0.8912(4) 0.0886(4) 0.5059(3)
C5_8 C 0.8341(4) 0.0384(5) 0.5081(3)
C6_7 C 0.9502(5) 0.0188(5) 0.4119(3)
H1_7 H 0.991069 0.013922 0.379368
C9_8 C 0.7091(5) 0.0091(5) 0.5715(4)
C11_8 C 0.7405(5) 0.1174(6) 0.6705(4)
H5_8 H 0.751430 0.155486 0.704631
C12_8 C 0.7767(4) 0.0503(5) 0.5662(4)
N3_8 N 0.7927(4) 0.1065(4) 0.6152(3)
C20_8 C 0.6760(6) 0.0781(5) 0.6794(4)
H10_8 H 0.643940 0.088374 0.718900
C22_8 C 0.6566(6) 0.0216(6) 0.6296(5)
C1_8 C 0.9436(5) 0.8301(5) 0.2581(4)
C3_8 C 0.8932(5) 0.9628(5) 0.4117(3)
C4_8 C 0.8476(5) 0.7670(5) 0.3332(4)
C7_8 C 0.9413(4) 0.8919(5) 0.3042(3)
H2_8 H 0.973637 0.933301 0.294524
H3_7 H 0.697681 0.972330 0.536145
C10_8 C 0.8950(5) 0.7658(5) 0.2716(4)
H4_8 H 0.894883 0.723785 0.240175
O3_8 O 0.7735(4) 0.6861(4) 0.4117(3)
C13_8 C 0.8324(5) 0.9746(5) 0.4617(3)
H6_8 H 0.791552 0.940085 0.463713
C15_8 C 0.8937(4) 0.8963(5) 0.3644(3)
C17_8 C 0.7955(5) 0.6997(6) 0.3480(5)
C18_8 C 0.8494(4) 0.8321(5) 0.3766(4)
H8_8 H 0.817817 0.832531 0.417629
H12_7 H 0.611448 0.993283 0.633966
H3_8 H 0.302319 0.027670 0.036145
H12_8 H 0.388552 0.006717 0.133966
C2_8 C 0.0512(5) 0.9215(5) 0.9563(4)
C6_8 C 0.0498(5) 0.9812(5) 0.9119(3)
H1_8 H 0.008931 0.986078 0.879368
N2_7 N 0.9971(4) 0.8052(4) 0.0100(3)
C21_7 C 0.9457(6) 0.7469(7) 0.0129(5)
H11_7 H 0.951589 0.709573 0.048867
C14_7 C 0.9922(5) 0.8594(5) 0.9576(4)
C16_7 C 0.9302(5) 0.8584(5) 0.9086(4)
H7_7 H 0.925524 0.897420 0.874115
C19_7 C 0.8754(6) 0.7994(7) 0.9107(5)
H9_7 H 0.834255 0.798543 0.878240
C23_7 C 0.8850(8) 0.7404(7) 0.9649(5)
H13_7 H 0.851177 0.699072 0.967465
C14_8 C 0.0078(5) 0.1406(5) 0.4576(4)
N2_8 N 0.0029(4) 0.1948(4) 0.5100(3)
C16_8 C 0.0698(5) 0.1416(5) 0.4086(4)
H7_8 H 0.074476 0.102580 0.374115
C19_8 C 0.1246(6) 0.2006(7) 0.4107(5)
H9_8 H 0.165745 0.201457 0.378240
C21_8 C 0.0543(6) 0.2531(7) 0.5129(5)
H11_8 H 0.048411 0.290427 0.548867
C23_8 C 0.1150(8) 0.2596(7) 0.4649(5)
H13_8 H 0.148823 0.300928 0.467465
loop_
_geom_bond_atom_site_label_1
_geom_bond_atom_site_label_2
_geom_bond_site_symmetry_1
_geom_bond_site_symmetry_2
C1 C7 1_555 1_555
C4 C10 1_555 1_555
C7 H2 1_555 1_555
C10 C1 1_555 1_555
H4 C10 1_555 1_555
O3 C17 1_555 1_555
C13 C3 1_555 1_555
H6 C13 1_555 1_555
C15 C3 1_555 1_555
O4 C17 1_555 1_555
C17 C4 1_555 1_555
C18 C4 1_555 1_555
H8 C18 1_555 1_555
Mn2 O4 1_555 1_555
C7 C15 1_555 1_555
C15 C18 1_555 1_555
O1 C8 1_555 1_555
O2 C8 1_555 1_555
Mn3 O1 1_555 1_555
O2 Mn3 1_555 1_555
Mn1 N1 1_555 1_555
N1 C5 1_555 1_555
C5 C12 1_555 1_555
C11 H5 1_555 1_555
C12 C9 1_555 1_555
N3 Mn1 1_555 1_555
C20 C11 1_555 1_555
H10 C20 1_555 1_555
C22 C9 1_555 1_555
O5 Mn1 1_555 1_555
O6 Mn1 1_555 1_555
O7 Mn1 1_555 1_555
C11 N3 1_555 1_555
C12 N3 1_555 1_555
C20 C22 1_555 1_555
Mn2 N1_2 1_555 1_555
O1_2 C8_2 1_555 1_555
O2_2 C8_2 1_555 1_555
C1_2 C7_2 1_555 1_555
C2 N1_2 1_555 1_555
C3_2 C6 1_555 1_555
N1_2 C5_2 1_555 1_555
C4_2 C10_2 1_555 1_555
C5_2 C12_2 1_555 1_555
C6 C2 1_555 1_555
H1 C6 1_555 1_555
C7_2 H2_2 1_555 1_555
C8_2 C1_2 1_555 1_555
C9_2 H3 1_555 1_555
C10_2 C1_2 1_555 1_555
H4_2 C10_2 1_555 1_555
O3_2 C17_2 1_555 1_555
C11_2 H5_2 1_555 1_555
C12_2 C9_2 1_555 1_555
C13_2 C3_2 1_555 1_555
H6_2 C13_2 1_555 1_555
C14 C2 1_555 1_555
C15_2 C3_2 1_555 1_555
N2 Mn2 1_555 1_555
O4_2 C17_2 1_555 1_555
C16 C14 1_555 1_555
H7 C16 1_555 1_555
C17_2 C4_2 1_555 1_555
C18_2 C4_2 1_555 1_555
H8_2 C18_2 1_555 1_555
N3_2 Mn2 1_555 1_555
C19 C16 1_555 1_555
H9 C19 1_555 1_555
C20_2 C11_2 1_555 1_555
H10_2 C20_2 1_555 1_555
C21 N2 1_555 1_555
H11 C21 1_555 1_555
C22_2 C9_2 1_555 1_555
H12 C22_2 1_555 1_555
C23 C19 1_555 1_555
H13 C23 1_555 1_555
Mn3 O4_2 1_555 1_555
Mn3_2 O1_2 1_555 1_555
O5_2 Mn2 1_555 1_555
O6_2 Mn2 1_555 1_555
O2_2 Mn3_2 1_555 1_555
C5_2 C13_2 1_555 1_555
C7_2 C15_2 1_555 1_555
C11_2 N3_2 1_555 1_555
C12_2 N3_2 1_555 1_555
C14 N2 1_555 1_555
C15_2 C18_2 1_555 1_555
C20_2 C22_2 1_555 1_555
C21 C23 1_555 1_555
Mn3 N1_3 1_555 1_555
C2_2 N1_3 1_555 1_555
N1_3 C5_3 1_555 1_555
C5_3 C12_3 1_555 1_555
C6_2 C2_2 1_555 1_555
H1_2 C6_2 1_555 1_555
C11_3 H5_3 1_555 1_555
C12_3 C9_3 1_555 1_555
N3_3 Mn3 1_555 1_555
C20_3 C11_3 1_555 1_555
H10_3 C20_3 1_555 1_555
C22_3 C9_3 1_555 1_555
C11_3 N3_3 1_555 1_555
C12_3 N3_3 1_555 1_555
C20_3 C22_3 1_555 1_555
O5 C8_3 1_555 1_555
O6 C8_3 1_555 1_555
C1_3 C7_3 1_555 1_555
C4_3 C10_3 1_555 1_555
C7_3 H2_3 1_555 1_555
C10_3 C1_3 1_555 1_555
H4_3 C10_3 1_555 1_555
O3_3 C17_3 1_555 1_555
C13_3 C3_3 1_555 1_555
H6_3 C13_3 1_555 1_555
C15_3 C3_3 1_555 1_555
O4_3 C17_3 1_555 1_555
C17_3 C4_3 1_555 1_555
C18_3 C4_3 1_555 1_555
H8_3 C18_3 1_555 1_555
Mn3_2 O4_3 1_555 1_555
C7_3 C15_3 1_555 1_555
C15_3 C18_3 1_555 1_555
O5_2 C8_4 1_555 1_555
O6_2 C8_4 1_555 1_555
Mn3_2 N1_4 1_555 1_555
C1_4 C7_4 1_555 1_555
C2_3 N1_4 1_555 1_555
C3_4 C6_3 1_555 1_555
N1_4 C5_4 1_555 1_555
C4_4 C10_4 1_555 1_555
C5_4 C12_4 1_555 1_555
C6_3 C2_3 1_555 1_555
H1_3 C6_3 1_555 1_555
C7_4 H2_4 1_555 1_555
C9_4 H3_3 1_555 1_555
C10_4 C1_4 1_555 1_555
O3_4 C17_4 1_555 1_555
C11_4 H5_4 1_555 1_555
C12_4 C9_4 1_555 1_555
C13_4 C3_4 1_555 1_555
H6_4 C13_4 1_555 1_555
C14_2 C2_3 1_555 1_555
C15_4 C3_4 1_555 1_555
N2_2 Mn3_2 1_555 1_555
O7 C17_4 1_555 1_555
C16_2 C14_2 1_555 1_555
H7_2 C16_2 1_555 1_555
C17_4 C4_4 1_555 1_555
C18_4 C4_4 1_555 1_555
H8_4 C18_4 1_555 1_555
N3_4 Mn3_2 1_555 1_555
C19_2 C16_2 1_555 1_555
H9_2 C19_2 1_555 1_555
C20_4 C11_4 1_555 1_555
H10_4 C20_4 1_555 1_555
C21_2 N2_2 1_555 1_555
H11_2 C21_2 1_555 1_555
C22_4 C9_4 1_555 1_555
H12_3 C22_4 1_555 1_555
C23_2 C19_2 1_555 1_555
H13_2 C23_2 1_555 1_555
C5_4 C13_4 1_555 1_555
C7_4 C15_4 1_555 1_555
C11_4 N3_4 1_555 1_555
C12_4 N3_4 1_555 1_555
C14_2 N2_2 1_555 1_555
C15_4 C18_4 1_555 1_555
C20_4 C22_4 1_555 1_555
C21_2 C23_2 1_555 1_555
C6_4 C2_4 1_555 1_555
H1_4 C6_4 1_555 1_555
C16_3 C14_3 1_555 1_555
H7_3 C16_3 1_555 1_555
C19_3 C16_3 1_555 1_555
H9_3 C19_3 1_555 1_555
C23_3 C19_3 1_555 1_555
H13_3 C23_3 1_555 1_555
C21_3 N2_3 1_555 1_555
H11_3 C21_3 1_555 1_555
C16_4 C14_4 1_555 1_555
H7_4 C16_4 1_555 1_555
C19_4 C16_4 1_555 1_555
H9_4 C19_4 1_555 1_555
C21_4 N2_4 1_555 1_555
H11_4 C21_4 1_555 1_555
C23_4 C19_4 1_555 1_555
H13_4 C23_4 1_555 1_555
C14_4 N2_4 1_555 1_555
C21_4 C23_4 1_555 1_555
Mn1_2 N1_5 1_555 1_555
O1_3 C8_5 1_555 1_555
O2_3 C8_5 1_555 1_555
C1_5 C7_5 1_555 1_555
C2_5 N1_5 1_555 1_555
C3_5 C6_5 1_555 1_555
N1_5 C5_5 1_555 1_555
C4_5 C10_5 1_555 1_555
C5_5 C12_5 1_555 1_555
C6_5 C2_5 1_555 1_555
H1_5 C6_5 1_555 1_555
C7_5 H2_5 1_555 1_555
C8_5 C1_5 1_555 1_555
C9_5 H3_5 1_555 1_555
C10_5 C1_5 1_555 1_555
H4_5 C10_5 1_555 1_555
O3_5 C17_5 1_555 1_555
C11_5 H5_5 1_555 1_555
C12_5 C9_5 1_555 1_555
C13_5 C3_5 1_555 1_555
H6_5 C13_5 1_555 1_555
C14_5 C2_5 1_555 1_555
C15_5 C3_5 1_555 1_555
N2_5 Mn1_2 1_555 1_555
O4_4 C17_5 1_555 1_555
C16_5 C14_5 1_555 1_555
H7_5 C16_5 1_555 1_555
C17_5 C4_5 1_555 1_555
C18_5 C4_5 1_555 1_555
H8_5 C18_5 1_555 1_555
N3_5 Mn1_2 1_555 1_555
C19_5 C16_5 1_555 1_555
H9_5 C19_5 1_555 1_555
C20_5 C11_5 1_555 1_555
H10_5 C20_5 1_555 1_555
C21_5 N2_5 1_555 1_555
H11_5 C21_5 1_555 1_555
C22_5 C9_5 1_555 1_555
H12_5 C22_5 1_555 1_555
C23_5 C19_5 1_555 1_555
H13_5 C23_5 1_555 1_555
Mn2_2 O4_4 1_555 1_555
Mn3_3 O1_3 1_555 1_555
O5_3 Mn1_2 1_555 1_555
O6_3 Mn1_2 1_555 1_555
O7_2 Mn1_2 1_555 1_555
O2_3 Mn3_3 1_555 1_555
C5_5 C13_5 1_555 1_555
C7_5 C15_5 1_555 1_555
C11_5 N3_5 1_555 1_555
C12_5 N3_5 1_555 1_555
C14_5 N2_5 1_555 1_555
C15_5 C18_5 1_555 1_555
C20_5 C22_5 1_555 1_555
C21_5 C23_5 1_555 1_555
Mn3_3 N1_6 1_555 1_555
C1_6 C7_6 1_555 1_555
C2_6 N1_6 1_555 1_555
C3_6 C6_6 1_555 1_555
N1_6 C5_6 1_555 1_555
C4_6 C10_6 1_555 1_555
C5_6 C12_6 1_555 1_555
C6_6 C2_6 1_555 1_555
H1_6 C6_6 1_555 1_555
C7_6 H2_6 1_555 1_555
C9_6 H3_6 1_555 1_555
C10_6 C1_6 1_555 1_555
O3_6 C17_6 1_555 1_555
C11_6 H5_6 1_555 1_555
C12_6 C9_6 1_555 1_555
C13_6 C3_6 1_555 1_555
H6_6 C13_6 1_555 1_555
C14_6 C2_6 1_555 1_555
C15_6 C3_6 1_555 1_555
N2_6 Mn3_3 1_555 1_555
O4_5 C17_6 1_555 1_555
C16_6 C14_6 1_555 1_555
H7_6 C16_6 1_555 1_555
C17_6 C4_6 1_555 1_555
C18_6 C4_6 1_555 1_555
H8_6 C18_6 1_555 1_555
N3_6 Mn3_3 1_555 1_555
C19_6 C16_6 1_555 1_555
H9_6 C19_6 1_555 1_555
C20_6 C11_6 1_555 1_555
H10_6 C20_6 1_555 1_555
C21_6 N2_6 1_555 1_555
H11_6 C21_6 1_555 1_555
C22_6 C9_6 1_555 1_555
H12_6 C22_6 1_555 1_555
C23_6 C19_6 1_555 1_555
H13_6 C23_6 1_555 1_555
Mn2_3 O4_5 1_555 1_555
O7_3 Mn3_3 1_555 1_555
C5_6 C13_6 1_555 1_555
C7_6 C15_6 1_555 1_555
C11_6 N3_6 1_555 1_555
C12_6 N3_6 1_555 1_555
C14_6 N2_6 1_555 1_555
C15_6 C18_6 1_555 1_555
C20_6 C22_6 1_555 1_555
C21_6 C23_6 1_555 1_555
O5_3 C8_6 1_555 1_555
O6_3 C8_6 1_555 1_555
C1_7 C7_7 1_555 1_555
C4_7 C10_7 1_555 1_555
C7_7 H2_7 1_555 1_555
C10_7 C1_7 1_555 1_555
H4_7 C10_7 1_555 1_555
O3_7 C17_7 1_555 1_555
C13_7 C3_7 1_555 1_555
H6_7 C13_7 1_555 1_555
C15_7 C3_7 1_555 1_555
O7_2 C17_7 1_555 1_555
C17_7 C4_7 1_555 1_555
C18_7 C4_7 1_555 1_555
H8_7 C18_7 1_555 1_555
C7_7 C15_7 1_555 1_555
C15_7 C18_7 1_555 1_555
Mn2_3 N1_7 1_555 1_555
N1_7 C5_7 1_555 1_555
C5_7 C12_7 1_555 1_555
C11_7 H5_7 1_555 1_555
C12_7 C9_7 1_555 1_555
N3_7 Mn2_3 1_555 1_555
C20_7 C11_7 1_555 1_555
H10_7 C20_7 1_555 1_555
C22_7 C9_7 1_555 1_555
O5_4 Mn2_3 1_555 1_555
O6_4 Mn2_3 1_555 1_555
C11_7 N3_7 1_555 1_555
C12_7 N3_7 1_555 1_555
C20_7 C22_7 1_555 1_555
O1_4 C8_7 1_555 1_555
O2_4 C8_7 1_555 1_555
Mn2_2 O1_4 1_555 1_555
O2_4 Mn2_2 1_555 1_555
O5_4 C8_8 1_555 1_555
O6_4 C8_8 1_555 1_555
Mn2_2 N1_8 1_555 1_555
C2_7 N1_8 1_555 1_555
N1_8 C5_8 1_555 1_555
C5_8 C12_8 1_555 1_555
C6_7 C2_7 1_555 1_555
H1_7 C6_7 1_555 1_555
C11_8 H5_8 1_555 1_555
C12_8 C9_8 1_555 1_555
N3_8 Mn2_2 1_555 1_555
C20_8 C11_8 1_555 1_555
H10_8 C20_8 1_555 1_555
C22_8 C9_8 1_555 1_555
C11_8 N3_8 1_555 1_555
C12_8 N3_8 1_555 1_555
C20_8 C22_8 1_555 1_555
C1_8 C7_8 1_555 1_555
C4_8 C10_8 1_555 1_555
C7_8 H2_8 1_555 1_555
C10_8 C1_8 1_555 1_555
H4_8 C10_8 1_555 1_555
O3_8 C17_8 1_555 1_555
C13_8 C3_8 1_555 1_555
H6_8 C13_8 1_555 1_555
C15_8 C3_8 1_555 1_555
O7_3 C17_8 1_555 1_555
C17_8 C4_8 1_555 1_555
C18_8 C4_8 1_555 1_555
H8_8 C18_8 1_555 1_555
C7_8 C15_8 1_555 1_555
C15_8 C18_8 1_555 1_555
C6_8 C2_8 1_555 1_555
H1_8 C6_8 1_555 1_555
C21_7 N2_7 1_555 1_555
H11_7 C21_7 1_555 1_555
C16_7 C14_7 1_555 1_555
H7_7 C16_7 1_555 1_555
C19_7 C16_7 1_555 1_555
H9_7 C19_7 1_555 1_555
C23_7 C19_7 1_555 1_555
H13_7 C23_7 1_555 1_555
C16_8 C14_8 1_555 1_555
H7_8 C16_8 1_555 1_555
C19_8 C16_8 1_555 1_555
H9_8 C19_8 1_555 1_555
C21_8 N2_8 1_555 1_555
H11_8 C21_8 1_555 1_555
C23_8 C19_8 1_555 1_555
H13_8 C23_8 1_555 1_555
C14_8 N2_8 1_555 1_555
C21_8 C23_8 1_555 1_555

#END
