
###############################################################################
#
# This file contains modified crystal structure data generated from the
# MOF subset of the Cambridge Structural Database (CSD) v542 
# hosted by the Cambridge Crystallographic Data Centre (CCDC).
#
# This work is licensed under the Creative Commons
# Attribution-NonCommercial-ShareAlike 4.0 International License.
# To view a copy of this license, visit
# http://creativecommons.org/licenses/by-nc-sa/4.0/
# or send a letter to
# Creative Commons, PO Box 1866, Mountain View, CA 94042, USA.
#
# CIF created using the CSD Python API on 22 February 2021
# The structure has been converted into the P1 space group
# The structure has a 3D framework
# The original CSD entry XUDFEK is in the triclinic crystal system
# The framework has been calculated to contain at least 10.0% void space
# The void calculation uses a probe of radius 1.32A, grid spacing 0.4
#
###############################################################################

data_XUDFEK
_chemical_formula_moiety         '(C112 H80 N16 O16 S4 Zn4)n'
_symmetry_cell_setting           triclinic
_symmetry_space_group_name_H-M   'P 1'
_symmetry_Int_Tables_number      1
_space_group_name_Hall           'P 1'
loop_
_symmetry_equiv_pos_site_id
_symmetry_equiv_pos_as_xyz
1 x,y,z
_cell_length_a                   11.3621(14)
_cell_length_b                   14.987(2)
_cell_length_c                   18.963(2)
_cell_angle_alpha                103.554(4)
_cell_angle_beta                 107.1360(10)
_cell_angle_gamma                101.3890(10)
_cell_volume                     2873.7
loop_
_atom_site_label
_atom_site_type_symbol
_atom_site_fract_x
_atom_site_fract_y
_atom_site_fract_z
_atom_site_U_iso_or_equiv
_atom_site_thermal_displace_type
O12 O 0.0603(4) 0.2357(3) 0.2478(2) 0.0526 Uani
O14 O 0.0349(5) 0.3778(4) 0.2599(3) 0.0687 Uani
C96 C 0.0025(6) 0.2933(5) 0.2279(3) 0.0474 Uani
Zn9 Zn 0.23385(7) 0.29544(5) 0.32510(4) 0.0438 Uani
C25 C 0.0043(6) 0.0374(5) 0.4408(3) 0.0540 Uani
C31 C 0.0153(7) 0.0794(5) 0.3773(4) 0.0653 Uani
H14 H 0.034850 0.148583 0.396909 0.0780 Uiso
H15 H 0.085494 0.064760 0.362287 0.0780 Uiso
C37 C 0.1064(7) 0.0182(6) 0.4828(4) 0.0662 Uani
H21 H 0.182328 0.030602 0.472774 0.0800 Uiso
N11 N 0.2626(4) 0.0688(3) 0.7910(2) 0.0379 Uani
H50 H 0.465734 0.007885 0.858158 0.0660 Uiso
C78 C 0.1512(6) 0.0494(5) 0.7376(4) 0.0500 Uani
H58 H 0.106809 0.094666 0.731460 0.0600 Uiso
Zn7 Zn 0.38025(6) 0.19945(5) 0.85856(3) 0.0364 Uani
N1 N 0.2883(4) 0.2527(3) 0.9266(2) 0.0346 Uani
N4 N 0.1805(5) 0.3356(3) 0.9779(3) 0.0419 Uani
C1 C 0.2280(5) 0.2004(4) 0.9637(3) 0.0355 Uani
C2 C 0.0008(6) 0.4026(4) 0.9327(3) 0.0446 Uani
C5 C 0.1593(5) 0.2523(4) 0.9958(3) 0.0365 Uani
C20 C 0.1193(6) 0.4114(4) 0.9965(3) 0.0484 Uani
C26 C 0.2321(6) 0.1139(4) 0.9744(3) 0.0497 Uani
H9 H 0.278851 0.078235 0.953373 0.0590 Uiso
C27 C 0.0093(6) 0.4522(5) 0.8810(4) 0.0519 Uani
H10 H 0.088453 0.491073 0.886864 0.0630 Uiso
C53 C 0.2607(6) 0.3323(4) 0.9393(3) 0.0397 Uani
H37 H 0.293481 0.382636 0.923267 0.0480 Uiso
N12 N 0.1064(5) 0.9591(4) 0.6924(3) 0.0558 Uani
C68 C 0.2938(6) 0.9831(4) 0.7796(3) 0.0443 Uani
C69 C 0.1947(6) 0.9141(5) 0.7169(3) 0.0476 Uani
C71 C 0.3988(7) 0.9609(5) 0.8170(4) 0.0551 Uani
C74 C 0.4076(9) 0.8695(5) 0.7946(5) 0.0776 Uani
H54 H 0.479599 0.853248 0.820220 0.0930 Uiso
C75 C 0.1961(8) 0.8228(5) 0.6921(4) 0.0674 Uani
H55 H 0.128235 0.776945 0.650645 0.0810 Uiso
C76 C 0.3045(9) 0.8009(6) 0.7317(5) 0.0732 Uani
H56 H 0.309355 0.738516 0.716043 0.0880 Uiso
C77 C 0.1001(8) 0.9799(6) 0.5411(4) 0.0822 Uani
H57 H 0.172186 0.965637 0.569134 0.0980 Uiso
N8 N 0.8936(5) 0.0409(4) 0.3076(3) 0.0558 Uani
C9 C 0.7062(6) 0.0169(4) 0.2204(3) 0.0443 Uani
C23 C 0.8053(6) 0.0859(5) 0.2831(3) 0.0476 Uani
C29 C 0.6012(7) 0.0391(5) 0.1830(4) 0.0551 Uani
C40 C 0.6815(9) 0.0509(5) 0.7524(4) 0.0751 Uani
H25 H 0.622653 0.084609 0.738372 0.0910 Uiso
C41 C 0.5924(9) 0.1305(5) 0.2054(5) 0.0776 Uani
H26 H 0.520401 0.146752 0.179780 0.0930 Uiso
C43 C 0.8039(8) 0.1772(5) 0.3079(4) 0.0674 Uani
H28 H 0.871765 0.223055 0.349355 0.0810 Uiso
C45 C 0.4595(8) 0.0480(5) 0.5533(4) 0.0730 Uani
H30 H 0.432367 0.082944 0.589643 0.0880 Uiso
C46 C 0.6955(9) 0.1991(6) 0.2683(5) 0.0732 Uani
H31 H 0.690645 0.261484 0.283957 0.0880 Uiso
C47 C 0.8999(8) 0.0201(6) 0.4589(4) 0.0822 Uani
H32 H 0.827814 0.034363 0.430866 0.0980 Uiso
C48 C 0.8829(9) 0.0453(6) 0.8272(4) 0.0817 Uani
H33 H 0.962163 0.077730 0.866586 0.0980 Uiso
C51 C 0.7933(10) 0.0949(6) 0.8084(5) 0.0933 Uani
H35 H 0.812432 0.159399 0.835530 0.1110 Uiso
N9 N 0.3170(5) 0.1882(4) 0.3137(3) 0.0452 Uani
N10 N 0.4556(5) 0.1092(4) 0.3435(3) 0.0489 Uani
C57 C 0.2611(6) 0.0936(4) 0.2671(3) 0.0452 Uani
C58 C 0.3476(6) 0.0440(5) 0.2850(3) 0.0474 Uani
C59 C 0.5319(6) 0.0401(5) 0.4468(3) 0.0460 Uani
C60 C 0.5648(6) 0.0832(5) 0.3882(4) 0.0575 Uani
H41 H 0.588008 0.037349 0.353259 0.0690 Uiso
H42 H 0.638213 0.139748 0.414852 0.0690 Uiso
C61 C 0.1416(7) 0.0485(5) 0.2098(4) 0.0602 Uani
H43 H 0.080893 0.081300 0.197413 0.0720 Uiso
C65 C 0.4900(9) 0.0865(6) 0.5007(4) 0.0789 Uani
H47 H 0.481932 0.147293 0.501716 0.0940 Uiso
C67 C 0.4300(6) 0.1933(4) 0.3571(3) 0.0460 Uani
H49 H 0.487880 0.249539 0.393923 0.0550 Uiso
S4 S 0.31974(18) 0.26288(13) 0.57584(8) 0.0552 Uani
O9 O 0.3775(4) 0.2765(3) 0.7908(2) 0.0479 Uani
O10 O 0.6030(4) 0.3350(3) 0.9852(2) 0.0547 Uani
O11 O 0.5278(4) 0.1787(3) 0.9244(2) 0.0545 Uani
O13 O 0.2576(5) 0.3110(4) 0.4326(2) 0.0635 Uani
N15 N 0.3292(5) 0.4010(4) 0.2978(3) 0.0450 Uani
N16 N 0.3490(5) 0.5312(3) 0.2631(3) 0.0478 Uani
O15 O 0.4019(5) 0.1706(4) 0.6988(3) 0.0728 Uani
C81 C 0.3753(5) 0.3872(4) 0.2361(3) 0.0397 Uani
C86 C 0.3735(5) 0.2402(5) 0.7221(3) 0.0428 Uani
C87 C 0.3872(6) 0.4678(4) 0.2139(3) 0.0439 Uani
C88 C 0.6062(6) 0.2535(5) 0.9802(3) 0.0463 Uani
C89 C 0.4073(6) 0.3111(5) 0.1991(3) 0.0478 Uani
H60 H 0.397123 0.254635 0.211981 0.0580 Uiso
C90 C 0.1149(6) 0.6513(4) 0.0754(4) 0.0510 Uani
H61 H 0.121885 0.683742 0.039982 0.0620 Uiso
C91 C 0.2166(6) 0.6112(4) 0.1886(4) 0.0488 Uani
C92 C 0.3222(6) 0.2947(5) 0.6688(3) 0.0507 Uani
C95 C 0.2226(7) 0.6586(4) 0.1358(4) 0.0533 Uani
H65 H 0.301730 0.696716 0.140831 0.0640 Uiso
C97 C 0.4693(6) 0.4041(5) 0.1215(4) 0.0513 Uani
H66 H 0.503564 0.408438 0.083104 0.0620 Uiso
C100 C 0.4544(7) 0.3214(5) 0.1430(4) 0.0571 Uani
H69 H 0.478020 0.270710 0.117581 0.0690 Uiso
C101 C 0.4342(7) 0.4777(5) 0.1561(4) 0.0570 Uani
H70 H 0.441374 0.533135 0.141748 0.0680 Uiso
C103 C 0.2570(7) 0.3494(6) 0.5578(4) 0.0649 Uani
C104 C 0.0965(7) 0.5555(5) 0.1780(4) 0.0596 Uani
H72 H 0.088740 0.522299 0.212900 0.0710 Uiso
O16 O 0.1514(9) 0.4123(7) 0.4635(4) 0.1484 Uani
C106 C 0.3380(6) 0.6226(4) 0.2554(4) 0.0580 Uani
H74 H 0.336201 0.662113 0.303377 0.0700 Uiso
H75 H 0.412537 0.654769 0.246439 0.0700 Uiso
C108 C 0.2758(9) 0.3709(6) 0.6834(4) 0.0887 Uani
H77 H 0.266654 0.397880 0.730224 0.1060 Uiso
C109 C 0.2176(9) 0.3588(7) 0.4781(4) 0.0817 Uani
C110 C 0.2444(11) 0.4028(7) 0.6213(5) 0.1118 Uani
H78 H 0.216470 0.457193 0.622471 0.1340 Uiso
C112 C 0.3183(6) 0.4885(5) 0.3118(3) 0.0477 Uani
H80 H 0.292015 0.517208 0.351265 0.0570 Uiso
Zn1 Zn 0.61975(6) 0.80055(5) 0.14144(3) 0.0364 Uani
Zn2 Zn 0.76615(7) 0.70456(5) 0.67490(4) 0.0438 Uani
S2 S 0.68026(18) 0.73712(13) 0.42416(8) 0.0552 Uani
O1 O 0.6225(4) 0.7235(3) 0.2092(2) 0.0479 Uani
O2 O 0.3970(4) 0.6650(3) 0.0148(2) 0.0547 Uani
O3 O 0.4722(4) 0.8213(3) 0.0756(2) 0.0545 Uani
N2 N 0.6830(5) 0.8118(4) 0.6863(3) 0.0452 Uani
O5 O 0.7424(5) 0.6890(4) 0.5674(2) 0.0635 Uani
N3 N 0.7374(4) 0.9312(3) 0.2090(2) 0.0379 Uani
N5 N 0.5444(5) 0.8908(4) 0.6565(3) 0.0489 Uani
N6 N 0.6708(5) 0.5990(4) 0.7022(3) 0.0450 Uani
N7 N 0.6510(5) 0.4688(3) 0.7369(3) 0.0478 Uani
O7 O 0.5981(5) 0.8294(4) 0.3012(3) 0.0728 Uani
C3 C 0.7389(6) 0.9064(4) 0.7329(3) 0.0452 Uani
C4 C 0.6247(5) 0.6128(4) 0.7639(3) 0.0397 Uani
C10 C 0.6265(5) 0.7598(5) 0.2779(3) 0.0428 Uani
C11 C 0.6128(6) 0.5322(4) 0.7861(3) 0.0439 Uani
C12 C 0.6524(6) 0.9560(5) 0.7150(3) 0.0474 Uani
C13 C 0.3938(6) 0.7465(5) 0.0198(3) 0.0463 Uani
C14 C 0.5927(6) 0.6889(5) 0.8009(3) 0.0478 Uani
H2 H 0.602877 0.745365 0.788019 0.0580 Uiso
C15 C 0.4681(6) 0.9599(5) 0.5532(3) 0.0460 Uani
C16 C 0.8851(6) 0.3487(4) 0.9246(4) 0.0510 Uani
H3 H 0.878115 0.316258 0.960018 0.0620 Uiso
C17 C 0.7834(6) 0.3888(4) 0.8114(4) 0.0488 Uani
C18 C 0.6778(6) 0.7053(5) 0.3312(3) 0.0507 Uani
C21 C 0.7774(7) 0.3414(4) 0.8642(4) 0.0533 Uani
H7 H 0.698270 0.303284 0.859169 0.0640 Uiso
C24 C 0.5307(6) 0.5959(5) 0.8785(4) 0.0513 Uani
H8 H 0.496436 0.591562 0.916896 0.0620 Uiso
C28 C 0.5456(7) 0.6786(5) 0.8570(4) 0.0571 Uani
H11 H 0.521980 0.729290 0.882419 0.0690 Uiso
H12 H 0.534266 0.992115 0.141842 0.0660 Uiso
C30 C 0.5658(7) 0.5223(5) 0.8439(4) 0.0570 Uani
H13 H 0.558626 0.466865 0.858252 0.0680 Uiso
C33 C 0.4352(6) 0.9168(5) 0.6118(4) 0.0575 Uani
H17 H 0.411992 0.962651 0.646741 0.0690 Uiso
H18 H 0.361787 0.860252 0.585148 0.0690 Uiso
C34 C 0.7430(7) 0.6506(6) 0.4422(4) 0.0649 Uani
C35 C 0.8584(7) 0.9515(5) 0.7902(4) 0.0602 Uani
H19 H 0.919107 0.918700 0.802587 0.0720 Uiso
C36 C 0.9035(7) 0.4445(5) 0.8220(4) 0.0596 Uani
H20 H 0.911260 0.477701 0.787100 0.0710 Uiso
O8 O 0.8486(9) 0.5877(7) 0.5365(4) 0.1484 Uani
C39 C 0.6620(6) 0.3774(4) 0.7446(4) 0.0580 Uani
H23 H 0.663799 0.337887 0.696623 0.0700 Uiso
H24 H 0.587463 0.345231 0.753561 0.0700 Uiso
C44 C 0.7242(9) 0.6291(6) 0.3166(4) 0.0887 Uani
H29 H 0.733346 0.602120 0.269776 0.1060 Uiso
C49 C 0.5100(9) 0.9135(6) 0.4993(4) 0.0789 Uani
H34 H 0.518068 0.852707 0.498284 0.0940 Uiso
C50 C 0.7824(9) 0.6412(7) 0.5219(4) 0.0817 Uani
C52 C 0.7556(11) 0.5972(7) 0.3787(5) 0.1118 Uani
H36 H 0.783530 0.542807 0.377529 0.1340 Uiso
C54 C 0.6817(6) 0.5115(5) 0.6882(3) 0.0477 Uani
H38 H 0.707985 0.482792 0.648735 0.0570 Uiso
C55 C 0.5700(6) 0.8067(4) 0.6429(3) 0.0460 Uani
H39 H 0.512120 0.750461 0.606077 0.0550 Uiso
C56 C 0.8488(6) 0.9506(5) 0.2624(4) 0.0500 Uani
H40 H 0.893191 0.905334 0.268540 0.0600 Uiso
C62 C 0.3185(9) 0.9491(5) 0.2476(4) 0.0751 Uani
H44 H 0.377347 0.915391 0.261628 0.0910 Uiso
C63 C 0.5405(8) 0.9520(5) 0.4467(4) 0.0730 Uani
H45 H 0.567633 0.917056 0.410357 0.0880 Uiso
C64 C 0.1171(9) 0.9547(6) 0.1728(4) 0.0817 Uani
H46 H 0.037837 0.922270 0.133414 0.0980 Uiso
C66 C 0.2067(10) 0.9051(6) 0.1916(5) 0.0933 Uani
H48 H 0.187568 0.840601 0.164470 0.1110 Uiso
C70 C 0.9957(6) 0.9626(5) 0.5592(3) 0.0540 Uani
C72 C 0.9847(7) 0.9206(5) 0.6227(4) 0.0653 Uani
H51 H 0.965150 0.851417 0.603091 0.0780 Uiso
H52 H 0.914506 0.935240 0.637713 0.0780 Uiso
C73 C 0.8936(7) 0.9818(6) 0.5172(4) 0.0662 Uani
H53 H 0.817672 0.969398 0.527226 0.0800 Uiso
O17 O 0.9397(4) 0.7643(3) 0.7522(2) 0.0526 Uani
N18 N 0.7117(4) 0.7473(3) 0.0734(2) 0.0346 Uani
N14 N 0.8195(5) 0.6644(3) 0.0221(3) 0.0419 Uani
C79 C 0.7720(5) 0.7996(4) 0.0363(3) 0.0355 Uani
C80 C 0.9992(6) 0.5974(4) 0.0673(3) 0.0446 Uani
C82 C 0.8407(5) 0.7477(4) 0.0042(3) 0.0365 Uani
C94 C 0.8807(6) 0.5886(4) 0.0035(3) 0.0484 Uani
C98 C 0.7679(6) 0.8861(4) 0.0256(3) 0.0497 Uani
H67 H 0.721149 0.921765 0.046627 0.0590 Uiso
C99 C 0.9907(6) 0.5478(5) 0.1190(4) 0.0519 Uani
H68 H 0.911547 0.508927 0.113136 0.0630 Uiso
C111 C 0.7393(6) 0.6677(4) 0.0607(3) 0.0397 Uani
H79 H 0.706519 0.617364 0.076733 0.0480 Uiso
O6 O 0.9651(5) 0.6222(4) 0.7401(3) 0.0687 Uani
C22 C 0.9975(6) 0.7067(5) 0.7721(3) 0.0474 Uani
H5 H 0.180203 0.473215 0.008851 0.0590 Uiso
H6 H 0.098526 0.409615 0.042331 0.0590 Uiso
C32 C 0.0927(6) 0.2190(5) 0.0380(4) 0.0527 Uani
H16 H 0.045741 0.254075 0.059485 0.0630 Uiso
C38 C 0.0976(7) 0.1319(5) 0.0476(4) 0.0666 Uani
H22 H 0.053157 0.106896 0.075981 0.0800 Uiso
C42 C 0.1666(7) 0.0820(5) 0.0162(4) 0.0639 Uani
H27 H 0.168689 0.023201 0.023814 0.0760 Uiso
S3 S 0.80963(15) 0.32531(11) 0.11891(9) 0.0473 Uani
C83 C 0.7018(5) 0.2335(4) 0.0411(3) 0.0419 Uani
C84 C 0.8844(5) 0.2518(4) 0.1558(3) 0.0401 Uani
C85 C 0.7248(6) 0.1508(5) 0.0453(4) 0.0509 Uani
H59 H 0.676800 0.092163 0.007780 0.0610 Uiso
C93 C 0.8276(6) 0.1607(5) 0.1112(4) 0.0503 Uani
H62 H 0.853980 0.109314 0.122944 0.0600 Uiso
S1 S 0.19037(15) 0.67469(11) 0.88109(9) 0.0473 Uani
C6 C 0.2982(5) 0.7665(4) 0.9589(3) 0.0419 Uani
C7 C 0.1156(5) 0.7482(4) 0.8442(3) 0.0401 Uani
C8 C 0.2752(6) 0.8492(5) 0.9547(4) 0.0509 Uani
H1 H 0.323200 0.907837 0.992220 0.0610 Uiso
C19 C 0.1724(6) 0.8393(5) 0.8888(4) 0.0503 Uani
H4 H 0.146020 0.890686 0.877056 0.0600 Uiso
H63 H 0.819797 0.526785 0.991149 0.0590 Uiso
H64 H 0.901474 0.590385 0.957669 0.0590 Uiso
C102 C 0.9073(6) 0.7810(5) 0.9620(4) 0.0527 Uani
H71 H 0.954259 0.745925 0.940515 0.0630 Uiso
C105 C 0.9024(7) 0.8681(5) 0.9524(4) 0.0666 Uani
H73 H 0.946843 0.893104 0.924019 0.0800 Uiso
C107 C 0.8334(7) 0.9180(5) 0.9838(4) 0.0639 Uani
H76 H 0.831311 0.976799 0.976186 0.0760 Uiso
loop_
_atom_site_aniso_label
_atom_site_aniso_U_11
_atom_site_aniso_U_22
_atom_site_aniso_U_33
_atom_site_aniso_U_23
_atom_site_aniso_U_13
_atom_site_aniso_U_12
O12 0.046 0.061 0.048 0.023 0.006 0.019
O14 0.065 0.064 0.056 0.012 -0.005 0.022
C96 0.046 0.063 0.036 0.023 0.012 0.017
Zn9 0.0479 0.0573 0.0296 0.0212 0.0099 0.0195
C25 0.044 0.065 0.039 0.013 0.006 0.003
C31 0.047 0.075 0.05 0.019 -0.005 0.001
C37 0.039 0.107 0.057 0.037 0.013 0.023
N11 0.034 0.047 0.033 0.014 0.007 0.018
C78 0.059 0.051 0.05 0.025 0.021 0.024
Zn7 0.0402 0.0454 0.0273 0.0132 0.012 0.0184
N1 0.035 0.039 0.035 0.019 0.01 0.017
N4 0.056 0.04 0.041 0.014 0.026 0.023
C1 0.04 0.04 0.027 0.009 0.011 0.016
C2 0.057 0.044 0.047 0.015 0.028 0.03
C5 0.036 0.04 0.036 0.013 0.014 0.013
C20 0.057 0.048 0.05 0.012 0.025 0.031
C26 0.064 0.045 0.049 0.023 0.021 0.024
C27 0.039 0.059 0.067 0.031 0.02 0.019
C53 0.051 0.036 0.039 0.018 0.02 0.014
N12 0.067 0.05 0.033 0.009 0.01 -0.004
C68 0.067 0.041 0.038 0.017 0.032 0.018
C69 0.059 0.049 0.035 0.016 0.013 0.018
C71 0.065 0.057 0.051 0.019 0.021 0.031
C74 0.118 0.052 0.098 0.036 0.07 0.037
C75 0.103 0.047 0.057 0.014 0.044 0.011
C76 0.107 0.053 0.087 0.024 0.062 0.038
C77 0.057 0.126 0.068 0.045 0.016 0.028
N8 0.067 0.05 0.033 0.009 0.01 -0.004
C9 0.067 0.041 0.038 0.017 0.032 0.018
C23 0.059 0.049 0.035 0.016 0.013 0.018
C29 0.065 0.057 0.051 0.019 0.021 0.031
C40 0.094 0.055 0.07 0.02 0.01 0.037
C41 0.118 0.052 0.098 0.036 0.07 0.037
C43 0.103 0.047 0.057 0.014 0.044 0.011
C45 0.114 0.075 0.064 0.029 0.056 0.055
C46 0.107 0.053 0.087 0.024 0.062 0.038
C47 0.057 0.126 0.068 0.045 0.016 0.028
C48 0.089 0.059 0.065 0.012 -0.002 0.006
C51 0.135 0.043 0.079 0.007 0.01 0.034
N9 0.046 0.058 0.034 0.022 0.009 0.019
N10 0.046 0.07 0.042 0.028 0.018 0.025
C57 0.051 0.05 0.033 0.017 0.01 0.014
C58 0.052 0.059 0.035 0.02 0.011 0.025
C59 0.038 0.068 0.041 0.023 0.01 0.034
C60 0.049 0.088 0.05 0.035 0.015 0.039
C61 0.068 0.058 0.049 0.02 0.015 0.011
C65 0.135 0.075 0.077 0.044 0.067 0.07
C67 0.043 0.049 0.039 0.015 0.008 0.007
S4 0.0729 0.0692 0.0295 0.0204 0.0206 0.0241
O9 0.056 0.06 0.029 0.0193 0.0107 0.02
O10 0.061 0.058 0.051 0.027 0.018 0.021
O11 0.057 0.059 0.039 0.009 0.006 0.023
O13 0.084 0.084 0.029 0.024 0.02 0.031
N15 0.05 0.053 0.038 0.018 0.016 0.023
N16 0.046 0.041 0.055 0.015 0.015 0.014
O15 0.11 0.09 0.053 0.036 0.048 0.058
C81 0.035 0.048 0.036 0.017 0.01 0.011
C86 0.036 0.058 0.032 0.017 0.008 0.011
C87 0.048 0.035 0.047 0.01 0.018 0.01
C88 0.049 0.062 0.039 0.021 0.022 0.024
C89 0.051 0.05 0.049 0.02 0.018 0.023
C90 0.059 0.054 0.06 0.028 0.037 0.023
C91 0.059 0.035 0.054 0.014 0.022 0.014
C92 0.066 0.066 0.029 0.023 0.023 0.019
C95 0.053 0.041 0.077 0.023 0.035 0.014
C97 0.05 0.06 0.05 0.02 0.023 0.018
C100 0.065 0.063 0.055 0.018 0.034 0.025
C101 0.064 0.055 0.056 0.027 0.025 0.009
C103 0.078 0.097 0.042 0.041 0.026 0.043
C104 0.057 0.062 0.077 0.038 0.033 0.021
O16 0.214 0.248 0.089 0.112 0.089 0.17
C106 0.053 0.039 0.071 0.017 0.007 0.013
C108 0.153 0.111 0.036 0.033 0.043 0.085
C109 0.119 0.104 0.048 0.047 0.031 0.058
C110 0.204 0.145 0.062 0.065 0.073 0.135
C112 0.048 0.057 0.035 0.009 0.012 0.019
Zn1 0.0402 0.0454 0.0273 0.0132 0.012 0.0184
Zn2 0.0479 0.0573 0.0296 0.0212 0.0099 0.0195
S2 0.0729 0.0692 0.0295 0.0204 0.0206 0.0241
O1 0.056 0.06 0.029 0.0193 0.0107 0.02
O2 0.061 0.058 0.051 0.027 0.018 0.021
O3 0.057 0.059 0.039 0.009 0.006 0.023
N2 0.046 0.058 0.034 0.022 0.009 0.019
O5 0.084 0.084 0.029 0.024 0.02 0.031
N3 0.034 0.047 0.033 0.014 0.007 0.018
N5 0.046 0.07 0.042 0.028 0.018 0.025
N6 0.05 0.053 0.038 0.018 0.016 0.023
N7 0.046 0.041 0.055 0.015 0.015 0.014
O7 0.11 0.09 0.053 0.036 0.048 0.058
C3 0.051 0.05 0.033 0.017 0.01 0.014
C4 0.035 0.048 0.036 0.017 0.01 0.011
C10 0.036 0.058 0.032 0.017 0.008 0.011
C11 0.048 0.035 0.047 0.01 0.018 0.01
C12 0.052 0.059 0.035 0.02 0.011 0.025
C13 0.049 0.062 0.039 0.021 0.022 0.024
C14 0.051 0.05 0.049 0.02 0.018 0.023
C15 0.038 0.068 0.041 0.023 0.01 0.034
C16 0.059 0.054 0.06 0.028 0.037 0.023
C17 0.059 0.035 0.054 0.014 0.022 0.014
C18 0.066 0.066 0.029 0.023 0.023 0.019
C21 0.053 0.041 0.077 0.023 0.035 0.014
C24 0.05 0.06 0.05 0.02 0.023 0.018
C28 0.065 0.063 0.055 0.018 0.034 0.025
C30 0.064 0.055 0.056 0.027 0.025 0.009
C33 0.049 0.088 0.05 0.035 0.015 0.039
C34 0.078 0.097 0.042 0.041 0.026 0.043
C35 0.068 0.058 0.049 0.02 0.015 0.011
C36 0.057 0.062 0.077 0.038 0.033 0.021
O8 0.214 0.248 0.089 0.112 0.089 0.17
C39 0.053 0.039 0.071 0.017 0.007 0.013
C44 0.153 0.111 0.036 0.033 0.043 0.085
C49 0.135 0.075 0.077 0.044 0.067 0.07
C50 0.119 0.104 0.048 0.047 0.031 0.058
C52 0.204 0.145 0.062 0.065 0.073 0.135
C54 0.048 0.057 0.035 0.009 0.012 0.019
C55 0.043 0.049 0.039 0.015 0.008 0.007
C56 0.059 0.051 0.05 0.025 0.021 0.024
C62 0.094 0.055 0.07 0.02 0.01 0.037
C63 0.114 0.075 0.064 0.029 0.056 0.055
C64 0.089 0.059 0.065 0.012 -0.002 0.006
C66 0.135 0.043 0.079 0.007 0.01 0.034
C70 0.044 0.065 0.039 0.013 0.006 0.003
C72 0.047 0.075 0.05 0.019 -0.005 0.001
C73 0.039 0.107 0.057 0.037 0.013 0.023
O17 0.046 0.061 0.048 0.023 0.006 0.019
N18 0.035 0.039 0.035 0.019 0.01 0.017
N14 0.056 0.04 0.041 0.014 0.026 0.023
C79 0.04 0.04 0.027 0.009 0.011 0.016
C80 0.057 0.044 0.047 0.015 0.028 0.03
C82 0.036 0.04 0.036 0.013 0.014 0.013
C94 0.057 0.048 0.05 0.012 0.025 0.031
C98 0.064 0.045 0.049 0.023 0.021 0.024
C99 0.039 0.059 0.067 0.031 0.02 0.019
C111 0.051 0.036 0.039 0.018 0.02 0.014
O6 0.065 0.064 0.056 0.012 -0.005 0.022
C22 0.046 0.063 0.036 0.023 0.012 0.017
C32 0.048 0.069 0.053 0.023 0.027 0.024
C38 0.073 0.079 0.079 0.052 0.044 0.031
C42 0.074 0.059 0.073 0.037 0.033 0.02
S3 0.0469 0.0482 0.0409 0.0156 0.0049 0.0151
C83 0.035 0.056 0.032 0.013 0.008 0.014
C84 0.041 0.051 0.034 0.018 0.014 0.019
C85 0.052 0.045 0.05 0.011 0.01 0.019
C93 0.052 0.056 0.05 0.024 0.017 0.024
S1 0.0469 0.0482 0.0409 0.0156 0.0049 0.0151
C6 0.035 0.056 0.032 0.013 0.008 0.014
C7 0.041 0.051 0.034 0.018 0.014 0.019
C8 0.052 0.045 0.05 0.011 0.01 0.019
C19 0.052 0.056 0.05 0.024 0.017 0.024
C102 0.048 0.069 0.053 0.023 0.027 0.024
C105 0.073 0.079 0.079 0.052 0.044 0.031
C107 0.074 0.059 0.073 0.037 0.033 0.02
loop_
_geom_bond_atom_site_label_1
_geom_bond_atom_site_label_2
_geom_bond_site_symmetry_1
_geom_bond_site_symmetry_2
O12 C96 1_555 1_555
O14 C96 1_555 1_555
Zn9 O12 1_555 1_555
C25 C31 1_555 1_555
H14 C31 1_555 1_555
H15 C31 1_555 1_555
C37 C25 1_555 1_555
H21 C37 1_555 1_555
C78 N11 1_555 1_555
H58 C78 1_555 1_555
Zn7 N11 1_555 1_555
N1 C1 1_555 1_555
N4 C5 1_555 1_555
C1 C5 1_555 1_555
C20 N4 1_555 1_555
C26 C1 1_555 1_555
H9 C26 1_555 1_555
C27 C2 1_555 1_555
H10 C27 1_555 1_555
C53 N1 1_555 1_555
H37 C53 1_555 1_555
N12 C69 1_555 1_555
C68 C69 1_555 1_555
C69 C75 1_555 1_555
C71 C68 1_555 1_555
C74 C71 1_555 1_555
H54 C74 1_555 1_555
C75 H55 1_555 1_555
C76 C74 1_555 1_555
H56 C76 1_555 1_555
H57 C77 1_555 1_555
Zn7 N1 1_555 1_555
N4 C53 1_555 1_555
C2 C20 1_555 1_555
C75 C76 1_555 1_555
N8 C23 1_555 1_555
C23 C9 1_555 1_555
C29 C9 1_555 1_555
C40 H25 1_555 1_555
C41 C29 1_555 1_555
H26 C41 1_555 1_555
C43 C23 1_555 1_555
H28 C43 1_555 1_555
H30 C45 1_555 1_555
C46 C41 1_555 1_555
H31 C46 1_555 1_555
H32 C47 1_555 1_555
H33 C48 1_555 1_555
C51 C40 1_555 1_555
H35 C51 1_555 1_555
N9 C57 1_555 1_555
N10 C58 1_555 1_555
C57 C58 1_555 1_555
C59 C60 1_555 1_555
C60 N10 1_555 1_555
H41 C60 1_555 1_555
H42 C60 1_555 1_555
C61 C57 1_555 1_555
H43 C61 1_555 1_555
C65 C45 1_555 1_555
H47 C65 1_555 1_555
C67 N9 1_555 1_555
H49 C67 1_555 1_555
Zn7 O9 1_555 1_555
Zn9 N9 1_555 1_555
S4 C92 1_555 1_555
O9 C86 1_555 1_555
O10 C88 1_555 1_555
O11 Zn7 1_555 1_555
O13 Zn9 1_555 1_555
N15 Zn9 1_555 1_555
N16 C87 1_555 1_555
O15 C86 1_555 1_555
C81 N15 1_555 1_555
C86 C92 1_555 1_555
C87 C81 1_555 1_555
C88 O11 1_555 1_555
C89 C81 1_555 1_555
H60 C89 1_555 1_555
C90 H61 1_555 1_555
C91 C95 1_555 1_555
C92 C108 1_555 1_555
C95 C90 1_555 1_555
H65 C95 1_555 1_555
C97 H66 1_555 1_555
C100 C89 1_555 1_555
H69 C100 1_555 1_555
C101 C87 1_555 1_555
H70 C101 1_555 1_555
C103 S4 1_555 1_555
C104 C91 1_555 1_555
H72 C104 1_555 1_555
O16 C109 1_555 1_555
C106 N16 1_555 1_555
H74 C106 1_555 1_555
H75 C106 1_555 1_555
C108 H77 1_555 1_555
C109 O13 1_555 1_555
C110 C103 1_555 1_555
H78 C110 1_555 1_555
C112 N15 1_555 1_555
H80 C112 1_555 1_555
C43 C46 1_555 1_555
C48 C51 1_555 1_555
N10 C67 1_555 1_555
C59 C65 1_555 1_555
N16 C112 1_555 1_555
C91 C106 1_555 1_555
C97 C100 1_555 1_555
C97 C101 1_555 1_555
C103 C109 1_555 1_555
C108 C110 1_555 1_555
Zn1 O1 1_555 1_555
Zn2 N2 1_555 1_555
S2 C18 1_555 1_555
O1 C10 1_555 1_555
O2 C13 1_555 1_555
O3 Zn1 1_555 1_555
N2 C3 1_555 1_555
O5 Zn2 1_555 1_555
N3 Zn1 1_555 1_555
N5 C12 1_555 1_555
N6 Zn2 1_555 1_555
N7 C11 1_555 1_555
O7 C10 1_555 1_555
C3 C12 1_555 1_555
C4 N6 1_555 1_555
C10 C18 1_555 1_555
C11 C4 1_555 1_555
C13 O3 1_555 1_555
C14 C4 1_555 1_555
H2 C14 1_555 1_555
C15 C33 1_555 1_555
C16 H3 1_555 1_555
C17 C21 1_555 1_555
C18 C44 1_555 1_555
C21 C16 1_555 1_555
H7 C21 1_555 1_555
C24 H8 1_555 1_555
C28 C14 1_555 1_555
H11 C28 1_555 1_555
C30 C11 1_555 1_555
H13 C30 1_555 1_555
C33 N5 1_555 1_555
H17 C33 1_555 1_555
H18 C33 1_555 1_555
C34 S2 1_555 1_555
C35 C3 1_555 1_555
H19 C35 1_555 1_555
C36 C17 1_555 1_555
H20 C36 1_555 1_555
O8 C50 1_555 1_555
C39 N7 1_555 1_555
H23 C39 1_555 1_555
H24 C39 1_555 1_555
C44 H29 1_555 1_555
C49 C15 1_555 1_555
H34 C49 1_555 1_555
C50 O5 1_555 1_555
C52 C34 1_555 1_555
H36 C52 1_555 1_555
C54 N6 1_555 1_555
H38 C54 1_555 1_555
C55 N2 1_555 1_555
H39 C55 1_555 1_555
C56 N3 1_555 1_555
H40 C56 1_555 1_555
C62 H44 1_555 1_555
C63 C49 1_555 1_555
H45 C63 1_555 1_555
H46 C64 1_555 1_555
C66 C62 1_555 1_555
H48 C66 1_555 1_555
C70 C72 1_555 1_555
H51 C72 1_555 1_555
H52 C72 1_555 1_555
H53 C73 1_555 1_555
O17 Zn2 1_555 1_555
N18 Zn1 1_555 1_555
N5 C55 1_555 1_555
N7 C54 1_555 1_555
C17 C39 1_555 1_555
C24 C28 1_555 1_555
C24 C30 1_555 1_555
C34 C50 1_555 1_555
C44 C52 1_555 1_555
C64 C66 1_555 1_555
C70 C73 1_555 1_555
N18 C79 1_555 1_555
N14 C82 1_555 1_555
C79 C82 1_555 1_555
C94 N14 1_555 1_555
C98 C79 1_555 1_555
H67 C98 1_555 1_555
C99 C80 1_555 1_555
H68 C99 1_555 1_555
C111 N18 1_555 1_555
H79 C111 1_555 1_555
N14 C111 1_555 1_555
C80 C94 1_555 1_555
O17 C22 1_555 1_555
O6 C22 1_555 1_555
C32 H16 1_555 1_555
C38 C32 1_555 1_555
H22 C38 1_555 1_555
H27 C42 1_555 1_555
C38 C42 1_555 1_555
S3 C83 1_555 1_555
C83 C85 1_555 1_555
C84 S3 1_555 1_555
C85 H59 1_555 1_555
C93 C84 1_555 1_555
H62 C93 1_555 1_555
C85 C93 1_555 1_555
S1 C6 1_555 1_555
C6 C8 1_555 1_555
C7 S1 1_555 1_555
C8 H1 1_555 1_555
C19 C7 1_555 1_555
H4 C19 1_555 1_555
C8 C19 1_555 1_555
C102 H71 1_555 1_555
C105 C102 1_555 1_555
H73 C105 1_555 1_555
H76 C107 1_555 1_555
C105 C107 1_555 1_555

#END
