
###############################################################################
#
# This file contains modified crystal structure data generated from the
# MOF subset of the Cambridge Structural Database (CSD) v542 
# hosted by the Cambridge Crystallographic Data Centre (CCDC).
#
# This work is licensed under the Creative Commons
# Attribution-NonCommercial-ShareAlike 4.0 International License.
# To view a copy of this license, visit
# http://creativecommons.org/licenses/by-nc-sa/4.0/
# or send a letter to
# Creative Commons, PO Box 1866, Mountain View, CA 94042, USA.
#
# CIF created using the CSD Python API on 22 February 2021
# The structure has been converted into the P1 space group
# The structure has a 3D framework
# The original CSD entry XUFSID is in the monoclinic crystal system
# The framework has been calculated to contain at least 10.0% void space
# The void calculation uses a probe of radius 1.32A, grid spacing 0.4
#
###############################################################################

data_XUFSID
_chemical_formula_moiety         '(C128 H136 Cu8 N24 O46 S8)n'
_symmetry_cell_setting           triclinic
_symmetry_space_group_name_H-M   'P 1'
_symmetry_Int_Tables_number      1
_space_group_name_Hall           'P 1'
loop_
_symmetry_equiv_pos_site_id
_symmetry_equiv_pos_as_xyz
1 x,y,z
_cell_length_a                   17.013(5)
_cell_length_b                   15.028(5)
_cell_length_c                   17.962(5)
_cell_angle_alpha                90
_cell_angle_beta                 111.845(5)
_cell_angle_gamma                90
_cell_volume                     4262.61
loop_
_atom_site_label
_atom_site_type_symbol
_atom_site_fract_x
_atom_site_fract_y
_atom_site_fract_z
C25 C 0.4769(5) 0.2828(5) 0.0407(5)
H29 H 0.440454 0.299042 0.068325
H30 H 0.514991 0.236727 0.069998
H31 H 0.508927 0.333800 0.036353
N3 N 0.8006(2) 0.0550(3) 0.0342(3)
C9 C 0.9467(3) 0.0288(4) 0.0388(3)
C12 C 0.8921(3) 0.0605(4) 0.0821(3)
H13 H 0.904518 0.025309 0.130432
H14 H 0.906564 0.121820 0.098287
Cu1 Cu 0.41398(4) 0.15522(4) 0.65528(4)
O1 O 0.5039(2) 0.0539(2) 0.6610(2)
N1 N 0.5731(3) 0.2511(4) 0.5379(4)
C1 C 0.6666(5) 0.2533(6) 0.5642(6)
H1 H 0.681973 0.274028 0.520896
H2 H 0.689473 0.292696 0.609154
H3 H 0.688842 0.194502 0.579476
O2 O 0.4597(2) 0.2242(3) 0.5732(2)
N2 N 0.3226(2) 0.0873(3) 0.5619(3)
C2 C 0.5231(5) 0.2828(5) 0.4593(5)
H4 H 0.559546 0.299042 0.431675
H5 H 0.485009 0.236727 0.430002
H6 H 0.491073 0.333800 0.463647
O3 O 0.6244(2) 0.0890(2) 0.7638(2)
O4 O 0.500000 0.2332(3) 0.750000
C3 C 0.3270(3) 0.0032(4) 0.5328(4)
N3_2 N 0.1994(2) 0.0550(3) 0.4658(3)
C5 C 0.5376(4) 0.2245(4) 0.5878(4)
H9 H 0.573230 0.204490 0.638049
C7 C 0.5816(3) 0.0443(3) 0.7043(3)
C9_2 C 0.0533(3) 0.0288(4) 0.4612(3)
C10 C 0.0871(3) 0.0021(4) 0.5404(3)
H11 H 0.145410 0.002742 0.568013
C12_2 C 0.1079(3) 0.0605(4) 0.4179(3)
H13_2 H 0.095482 0.025309 0.369568
H14_2 H 0.093436 0.121820 0.401713
C13 C 0.2446(3) 0.1152(3) 0.5192(3)
H15 H 0.223888 0.170708 0.525816
Cu2 Cu 0.58602(4) 0.15522(4) 0.84472(4)
O7 O 0.4961(2) 0.0539(2) 0.8390(2)
N6 N 0.4269(3) 0.2511(4) 0.9621(4)
C24 C 0.3334(5) 0.2533(6) 0.9358(6)
H26 H 0.318027 0.274028 0.979104
H27 H 0.310527 0.292696 0.890846
H28 H 0.311158 0.194502 0.920524
O8 O 0.5403(2) 0.2242(3) 0.9268(2)
O9 O 0.3756(2) 0.0890(2) 0.7362(2)
C26 C 0.4624(4) 0.2245(4) 0.9122(4)
H32 H 0.426770 0.204490 0.861951
C27 C 0.4184(3) 0.0443(3) 0.7957(3)
N7 N 0.6774(2) 0.0873(3) 0.9381(3)
O12 O 0.31930(19) 0.2553(2) 0.6430(2)
O13 O 0.68070(19) 0.2553(2) 0.8570(2)
S1 S 0.73199(8) 0.94626(10) 0.74077(9)
H7 H 0.374285 0.966320 0.550587
O5 O 0.8782(2) 0.8287(3) 0.7584(2)
C4 C 0.0342(3) 0.9742(4) 0.5789(3)
H8 H 0.057677 0.957203 0.632466
O6 O 0.81930(19) 0.7553(2) 0.6430(2)
C6 C 0.2514(3) 0.9824(4) 0.4739(4)
H10 H 0.237675 0.929567 0.444930
C8 C 0.8176(3) 0.8109(3) 0.6943(3)
C11 C 0.5995(3) 0.9200(4) 0.6136(3)
H12 H 0.545958 0.924804 0.573597
C14 C 0.6623(3) 0.8573(4) 0.6122(3)
H16 H 0.653084 0.816077 0.571205
C15 C 0.7369(3) 0.8636(3) 0.6765(3)
C16 C 0.6278(3) 0.9721(3) 0.6812(3)
S2 S 0.26801(8) 0.94626(10) 0.75923(9)
O10 O 0.1218(2) 0.8287(3) 0.7416(2)
O11 O 0.18070(19) 0.7553(2) 0.8570(2)
C28 C 0.1824(3) 0.8109(3) 0.8057(3)
C29 C 0.4005(3) 0.9200(4) 0.8864(3)
H33 H 0.454042 0.924804 0.926403
C30 C 0.3377(3) 0.8573(4) 0.8878(3)
H34 H 0.346916 0.816077 0.928795
C31 C 0.2631(3) 0.8636(3) 0.8235(3)
C32 C 0.3722(3) 0.9721(3) 0.8188(3)
Cu3 Cu 0.91398(4) 0.65522(4) 0.65528(4)
Cu4 Cu 0.08602(4) 0.65522(4) 0.84472(4)
H18 H 0.625715 0.033680 0.449413
C18 C 0.9658(3) 0.0258(4) 0.4211(3)
H19 H 0.942323 0.042797 0.367534
C19 C 0.7486(3) 0.0176(4) 0.5261(4)
H20 H 0.762325 0.070433 0.555070
N4 N 0.6774(2) 0.9127(3) 0.4381(3)
C17 C 0.6730(3) 0.9968(4) 0.4672(4)
N5 N 0.8006(2) 0.9450(3) 0.5342(3)
C20 C 0.9467(3) 0.9712(4) 0.5388(3)
C21 C 0.9129(3) 0.9979(4) 0.4596(3)
H21 H 0.854590 0.997258 0.431987
C22 C 0.8921(3) 0.9395(4) 0.5821(3)
H22 H 0.904518 0.974691 0.630432
H23 H 0.906564 0.878180 0.598287
C23 C 0.7554(3) 0.8848(3) 0.4808(3)
H24 H 0.776112 0.829292 0.474184
Cu5 Cu 0.58602(4) 0.84478(4) 0.34472(4)
H18_2 H 0.374285 0.033680 0.050587
C18_2 C 0.0342(3) 0.0258(4) 0.0789(3)
H19_2 H 0.057677 0.042797 0.132466
N4_2 N 0.3226(2) 0.9127(3) 0.0619(3)
C17_2 C 0.3270(3) 0.9968(4) 0.0328(4)
C21_2 C 0.0871(3) 0.9979(4) 0.0404(3)
H21_2 H 0.145410 0.997258 0.068013
C23_2 C 0.2446(3) 0.8848(3) 0.0192(3)
H24_2 H 0.223888 0.829292 0.025816
Cu5_2 Cu 0.41398(4) 0.84478(4) 0.15528(4)
C3_2 C 0.6730(3) 0.0032(4) 0.9672(4)
C10_2 C 0.9129(3) 0.0021(4) 0.9596(3)
H11_2 H 0.854590 0.002742 0.931987
C13_2 C 0.7554(3) 0.1152(3) 0.9808(3)
H15_2 H 0.776112 0.170708 0.974184
H7_2 H 0.625715 0.966320 0.949413
C4_2 C 0.9658(3) 0.9742(4) 0.9211(3)
H8_2 H 0.942323 0.957203 0.867534
H30_2 H 0.014991 0.736727 0.069998
H31_2 H 0.008927 0.833800 0.036353
S1_2 S 0.23199(8) 0.44626(10) 0.74077(9)
O1_2 O 0.0039(2) 0.5539(2) 0.6610(2)
N1_2 N 0.0731(3) 0.7511(4) 0.5379(4)
C1_2 C 0.1666(5) 0.7533(6) 0.5642(6)
H1_2 H 0.181973 0.774028 0.520896
H2_2 H 0.189473 0.792696 0.609154
H3_2 H 0.188842 0.694502 0.579476
C2_2 C 0.0231(5) 0.7828(5) 0.4593(5)
H4_2 H 0.059546 0.799042 0.431675
O3_2 O 0.1244(2) 0.5890(2) 0.7638(2)
O4_2 O 0.000000 0.7332(3) 0.750000
O5_2 O 0.3782(2) 0.3287(3) 0.7584(2)
C5_2 C 0.0376(4) 0.7245(4) 0.5878(4)
H9_2 H 0.073230 0.704490 0.638049
C7_2 C 0.0816(3) 0.5443(3) 0.7043(3)
C8_2 C 0.3176(3) 0.3109(3) 0.6943(3)
C11_2 C 0.0995(3) 0.4200(4) 0.6136(3)
H12_2 H 0.045958 0.424804 0.573597
C14_2 C 0.1623(3) 0.3573(4) 0.6122(3)
H16_2 H 0.153084 0.316077 0.571205
C15_2 C 0.2369(3) 0.3636(3) 0.6765(3)
C16_2 C 0.1278(3) 0.4721(3) 0.6812(3)
O8_2 O 0.0403(2) 0.7242(3) 0.9268(2)
N7_2 N 0.1774(2) 0.5873(3) 0.9381(3)
O2_2 O 0.9597(2) 0.7242(3) 0.5732(2)
N2_2 N 0.8226(2) 0.5873(3) 0.5619(3)
H5_2 H 0.985009 0.736727 0.430002
H6_2 H 0.991073 0.833800 0.463647
O4_3 O 1.000000 0.7332(3) 0.750000
C3_3 C 0.8270(3) 0.5032(4) 0.5328(4)
H7_3 H 0.874285 0.466320 0.550587
N3_3 N 0.6994(2) 0.5550(3) 0.4658(3)
C4_3 C 0.5342(3) 0.4742(4) 0.5789(3)
H8_3 H 0.557677 0.457203 0.632466
C6_2 C 0.7514(3) 0.4824(4) 0.4739(4)
H10_2 H 0.737675 0.429567 0.444930
C9_3 C 0.5533(3) 0.5288(4) 0.4612(3)
C10_3 C 0.5871(3) 0.5021(4) 0.5404(3)
H11_3 H 0.645410 0.502742 0.568013
C12_3 C 0.6079(3) 0.5605(4) 0.4179(3)
H13_3 H 0.595482 0.525309 0.369568
H14_3 H 0.593436 0.621820 0.401713
C13_3 C 0.7446(3) 0.6152(3) 0.5192(3)
H15_3 H 0.723888 0.670708 0.525816
N4_3 N 0.1774(2) 0.4127(3) 0.4381(3)
C17_3 C 0.1730(3) 0.4968(4) 0.4672(4)
H18_3 H 0.125715 0.533680 0.449413
N5_2 N 0.3006(2) 0.4450(3) 0.5342(3)
C18_3 C 0.4658(3) 0.5258(4) 0.4211(3)
H19_3 H 0.442323 0.542797 0.367534
C19_2 C 0.2486(3) 0.5176(4) 0.5261(4)
H20_2 H 0.262325 0.570433 0.555070
C20_2 C 0.4467(3) 0.4712(4) 0.5388(3)
C21_3 C 0.4129(3) 0.4979(4) 0.4596(3)
H21_3 H 0.354590 0.497258 0.431987
C22_2 C 0.3921(3) 0.4395(4) 0.5821(3)
H22_2 H 0.404518 0.474691 0.630432
H23_2 H 0.406564 0.378180 0.598287
C23_3 C 0.2554(3) 0.3848(3) 0.4808(3)
H24_3 H 0.276112 0.329292 0.474184
S2_2 S 0.76801(8) 0.44626(10) 0.75923(9)
O7_2 O 0.9961(2) 0.5539(2) 0.8390(2)
N6_2 N 0.9269(3) 0.7511(4) 0.9621(4)
C24_2 C 0.8334(5) 0.7533(6) 0.9358(6)
H26_2 H 0.818027 0.774028 0.979104
H27_2 H 0.810527 0.792696 0.890846
H28_2 H 0.811158 0.694502 0.920524
O9_2 O 0.8756(2) 0.5890(2) 0.7362(2)
O10_2 O 0.6218(2) 0.3287(3) 0.7416(2)
C26_2 C 0.9624(4) 0.7245(4) 0.9122(4)
H32_2 H 0.926770 0.704490 0.861951
C27_2 C 0.9184(3) 0.5443(3) 0.7957(3)
C28_2 C 0.6824(3) 0.3109(3) 0.8057(3)
C29_2 C 0.9005(3) 0.4200(4) 0.8864(3)
H33_2 H 0.954042 0.424804 0.926403
C30_2 C 0.8377(3) 0.3573(4) 0.8878(3)
H34_2 H 0.846916 0.316077 0.928795
C31_2 C 0.7631(3) 0.3636(3) 0.8235(3)
C32_2 C 0.8722(3) 0.4721(3) 0.8188(3)
Cu5_3 Cu 0.08602(4) 0.34478(4) 0.34472(4)
N3_4 N 0.3006(2) 0.5550(3) 0.0342(3)
C6_3 C 0.2486(3) 0.4824(4) 0.0261(4)
H10_3 H 0.262325 0.429567 0.055070
C9_4 C 0.4467(3) 0.5288(4) 0.0388(3)
C12_4 C 0.3921(3) 0.5605(4) 0.0821(3)
H13_4 H 0.404518 0.525309 0.130432
H14_4 H 0.406564 0.621820 0.098287
N4_4 N 0.8226(2) 0.4127(3) 0.0619(3)
C17_4 C 0.8270(3) 0.4968(4) 0.0328(4)
H18_4 H 0.874285 0.533680 0.050587
C18_4 C 0.5342(3) 0.5258(4) 0.0789(3)
H19_4 H 0.557677 0.542797 0.132466
C21_4 C 0.5871(3) 0.4979(4) 0.0404(3)
H21_4 H 0.645410 0.497258 0.068013
C23_4 C 0.7446(3) 0.3848(3) 0.0192(3)
H24_4 H 0.723888 0.329292 0.025816
Cu5_4 Cu 0.91398(4) 0.34478(4) 0.15528(4)
C3_4 C 0.1730(3) 0.5032(4) 0.9672(4)
H7_4 H 0.125715 0.466320 0.949413
C4_4 C 0.4658(3) 0.4742(4) 0.9211(3)
H8_4 H 0.442323 0.457203 0.867534
C10_4 C 0.4129(3) 0.5021(4) 0.9596(3)
H11_4 H 0.354590 0.502742 0.931987
C13_4 C 0.2554(3) 0.6152(3) 0.9808(3)
H15_4 H 0.276112 0.670708 0.974184
N5_3 N 0.6994(2) 0.4450(3) 0.9658(3)
C19_3 C 0.7514(3) 0.5176(4) 0.9739(4)
H20_3 H 0.737675 0.570433 0.944930
C20_3 C 0.5533(3) 0.4712(4) 0.9612(3)
C22_3 C 0.6079(3) 0.4395(4) 0.9179(3)
H22_3 H 0.595482 0.474691 0.869568
H23_3 H 0.593436 0.378180 0.901713
S1_3 S 0.26801(8) 0.05374(10) 0.25923(9)
O5_3 O 0.1218(2) 0.1713(3) 0.2416(2)
O6_2 O 0.18070(19) 0.2447(2) 0.3570(2)
C8_3 C 0.1824(3) 0.1891(3) 0.3057(3)
C11_3 C 0.4005(3) 0.0800(4) 0.3864(3)
H12_3 H 0.454042 0.075196 0.426403
C14_3 C 0.3377(3) 0.1427(4) 0.3878(3)
H16_3 H 0.346916 0.183923 0.428795
C15_3 C 0.2631(3) 0.1364(3) 0.3235(3)
C16_3 C 0.3722(3) 0.0279(3) 0.3188(3)
S2_3 S 0.73199(8) 0.05374(10) 0.24077(9)
O10_3 O 0.8782(2) 0.1713(3) 0.2584(2)
O11_2 O 0.81930(19) 0.2447(2) 0.1430(2)
C28_3 C 0.8176(3) 0.1891(3) 0.1943(3)
C29_3 C 0.5995(3) 0.0800(4) 0.1136(3)
H33_3 H 0.545958 0.075196 0.073597
C30_3 C 0.6623(3) 0.1427(4) 0.1122(3)
H34_3 H 0.653084 0.183923 0.071205
C31_3 C 0.7369(3) 0.1364(3) 0.1765(3)
C32_3 C 0.6278(3) 0.0279(3) 0.1812(3)
O1_3 O 0.4961(2) 0.9461(2) 0.3390(2)
N1_3 N 0.4269(3) 0.7489(4) 0.4621(4)
C1_3 C 0.3334(5) 0.7467(6) 0.4358(6)
H1_3 H 0.318027 0.725972 0.479104
H2_3 H 0.310527 0.707304 0.390846
H3_3 H 0.311158 0.805498 0.420524
O2_3 O 0.5403(2) 0.7758(3) 0.4268(2)
C2_3 C 0.4769(5) 0.7172(5) 0.5407(5)
H4_3 H 0.440454 0.700958 0.568325
H5_3 H 0.514991 0.763273 0.569998
H6_3 H 0.508927 0.666200 0.536353
O3_3 O 0.3756(2) 0.9110(2) 0.2362(2)
O4_4 O 0.500000 0.7668(3) 0.250000
C5_3 C 0.4624(4) 0.7755(4) 0.4122(4)
H9_3 H 0.426770 0.795510 0.361951
C7_3 C 0.4184(3) 0.9557(3) 0.2957(3)
O7_3 O 0.5039(2) 0.9461(2) 0.1610(2)
N6_3 N 0.5731(3) 0.7489(4) 0.0379(4)
C24_3 C 0.6666(5) 0.7467(6) 0.0642(6)
H26_3 H 0.681973 0.725972 0.020896
H27_3 H 0.689473 0.707304 0.109154
H28_3 H 0.688842 0.805498 0.079476
O8_3 O 0.4597(2) 0.7758(3) 0.0732(2)
O9_3 O 0.6244(2) 0.9110(2) 0.2638(2)
C26_3 C 0.5376(4) 0.7755(4) 0.0878(4)
H32_3 H 0.573230 0.795510 0.138049
C27_3 C 0.5816(3) 0.9557(3) 0.2043(3)
O12_2 O 0.68070(19) 0.7447(2) 0.3570(2)
O13_2 O 0.31930(19) 0.7447(2) 0.1430(2)
O2_4 O 0.0403(2) 0.2758(3) 0.4268(2)
H5_4 H 0.014991 0.263273 0.569998
H6_4 H 0.008927 0.166200 0.536353
O4_5 O 0.000000 0.2668(3) 0.250000
S2_4 S 0.23199(8) 0.55374(10) 0.24077(9)
O7_4 O 0.0039(2) 0.4461(2) 0.1610(2)
N6_4 N 0.0731(3) 0.2489(4) 0.0379(4)
C24_4 C 0.1666(5) 0.2467(6) 0.0642(6)
H26_4 H 0.181973 0.225972 0.020896
H27_4 H 0.189473 0.207304 0.109154
H28_4 H 0.188842 0.305498 0.079476
O9_4 O 0.1244(2) 0.4110(2) 0.2638(2)
O10_4 O 0.3782(2) 0.6713(3) 0.2584(2)
C26_4 C 0.0376(4) 0.2755(4) 0.0878(4)
H32_4 H 0.073230 0.295510 0.138049
C27_4 C 0.0816(3) 0.4557(3) 0.2043(3)
C28_4 C 0.3176(3) 0.6891(3) 0.1943(3)
C29_4 C 0.0995(3) 0.5800(4) 0.1136(3)
H33_4 H 0.045958 0.575196 0.073597
C30_4 C 0.1623(3) 0.6427(4) 0.1122(3)
H34_4 H 0.153084 0.683923 0.071205
C31_4 C 0.2369(3) 0.6364(3) 0.1765(3)
C32_4 C 0.1278(3) 0.5279(3) 0.1812(3)
S1_4 S 0.76801(8) 0.55374(10) 0.25923(9)
O1_4 O 0.9961(2) 0.4461(2) 0.3390(2)
N1_4 N 0.9269(3) 0.2489(4) 0.4621(4)
C1_4 C 0.8334(5) 0.2467(6) 0.4358(6)
H1_4 H 0.818027 0.225972 0.479104
H2_4 H 0.810527 0.207304 0.390846
H3_4 H 0.811158 0.305498 0.420524
C2_4 C 0.9769(5) 0.2172(5) 0.5407(5)
H4_4 H 0.940454 0.200958 0.568325
O3_4 O 0.8756(2) 0.4110(2) 0.2362(2)
O4_6 O 1.000000 0.2668(3) 0.250000
O5_4 O 0.6218(2) 0.6713(3) 0.2416(2)
C5_4 C 0.9624(4) 0.2755(4) 0.4122(4)
H9_4 H 0.926770 0.295510 0.361951
C7_4 C 0.9184(3) 0.4557(3) 0.2957(3)
C8_4 C 0.6824(3) 0.6891(3) 0.3057(3)
C11_4 C 0.9005(3) 0.5800(4) 0.3864(3)
H12_4 H 0.954042 0.575196 0.426403
C14_4 C 0.8377(3) 0.6427(4) 0.3878(3)
H16_4 H 0.846916 0.683923 0.428795
C15_4 C 0.7631(3) 0.6364(3) 0.3235(3)
C16_4 C 0.8722(3) 0.5279(3) 0.3188(3)
O8_4 O 0.9597(2) 0.2758(3) 0.0732(2)
H30_3 H 0.985009 0.263273 0.930002
H31_3 H 0.991073 0.166200 0.963647
C19_4 C 0.2514(3) 0.0176(4) 0.9739(4)
H20_4 H 0.237675 0.070433 0.944930
N5_4 N 0.1994(2) 0.9450(3) 0.9658(3)
C20_4 C 0.0533(3) 0.9712(4) 0.9612(3)
C22_4 C 0.1079(3) 0.9395(4) 0.9179(3)
H22_4 H 0.095482 0.974691 0.869568
H23_4 H 0.093436 0.878180 0.901713
C25_2 C 0.5231(5) 0.7172(5) 0.9593(5)
H29_2 H 0.559546 0.700958 0.931675
H30_4 H 0.485009 0.763273 0.930002
H31_4 H 0.491073 0.666200 0.963647
C6_4 C 0.7486(3) 0.9824(4) 0.0261(4)
H10_4 H 0.762325 0.929567 0.055070
C25_3 C 0.9769(5) 0.7828(5) 0.0407(5)
H29_3 H 0.940454 0.799042 0.068325
C25_4 C 0.0231(5) 0.2172(5) 0.9593(5)
H29_4 H 0.059546 0.200958 0.931675
loop_
_geom_bond_atom_site_label_1
_geom_bond_atom_site_label_2
_geom_bond_site_symmetry_1
_geom_bond_site_symmetry_2
H29 C25 1_555 1_555
H30 C25 1_555 1_555
H31 C25 1_555 1_555
C12 N3 1_555 1_555
H13 C12 1_555 1_555
H14 C12 1_555 1_555
C9 C12 1_555 1_555
Cu1 O1 1_555 1_555
O1 C7 1_555 1_555
N1 C1 1_555 1_555
C1 H1 1_555 1_555
H2 C1 1_555 1_555
H3 C1 1_555 1_555
O2 Cu1 1_555 1_555
N2 Cu1 1_555 1_555
C2 N1 1_555 1_555
H4 C2 1_555 1_555
H5 C2 1_555 1_555
H6 C2 1_555 1_555
O3 C7 1_555 1_555
O4 Cu1 1_555 1_555
C3 N2 1_555 1_555
C5 N1 1_555 1_555
H9 C5 1_555 1_555
C9_2 C10 1_555 1_555
H11 C10 1_555 1_555
C12_2 N3_2 1_555 1_555
H13_2 C12_2 1_555 1_555
H14_2 C12_2 1_555 1_555
C13 N2 1_555 1_555
H15 C13 1_555 1_555
Cu2 O3 1_555 1_555
O7 Cu2 1_555 1_555
N6 C24 1_555 1_555
C24 H26 1_555 1_555
H27 C24 1_555 1_555
H28 C24 1_555 1_555
O8 Cu2 1_555 1_555
O9 Cu1 1_555 1_555
C26 N6 1_555 1_555
H32 C26 1_555 1_555
C27 O7 1_555 1_555
N7 Cu2 1_555 1_555
O12 Cu1 1_555 1_555
O13 Cu2 1_555 1_555
O2 C5 1_555 1_555
O4 Cu2 1_555 1_555
N3_2 C13 1_555 1_555
C9_2 C12_2 1_555 1_555
O8 C26 1_555 1_555
O9 C27 1_555 1_555
S1 C15 1_555 1_555
O5 C8 1_555 1_555
C4 H8 1_555 1_555
O6 C8 1_555 1_555
H10 C6 1_555 1_555
C8 C15 1_555 1_555
C11 H12 1_555 1_555
C14 C11 1_555 1_555
H16 C14 1_555 1_555
C15 C14 1_555 1_555
C16 S1 1_555 1_555
S2 C31 1_555 1_555
O10 C28 1_555 1_555
O11 C28 1_555 1_555
C28 C31 1_555 1_555
C29 H33 1_555 1_555
C30 C29 1_555 1_555
H34 C30 1_555 1_555
C31 C30 1_555 1_555
C32 S2 1_555 1_555
Cu3 O6 1_555 1_555
Cu4 O11 1_555 1_555
C11 C16 1_555 1_555
C29 C32 1_555 1_555
H19 C18 1_555 1_555
H20 C19 1_555 1_555
N4 C17 1_555 1_555
H21 C21 1_555 1_555
C22 N5 1_555 1_555
H22 C22 1_555 1_555
H23 C22 1_555 1_555
C23 N4 1_555 1_555
H24 C23 1_555 1_555
Cu5 N4 1_555 1_555
N5 C23 1_555 1_555
C20 C21 1_555 1_555
C20 C22 1_555 1_555
H19_2 C18_2 1_555 1_555
N4_2 C17_2 1_555 1_555
H21_2 C21_2 1_555 1_555
C23_2 N4_2 1_555 1_555
H24_2 C23_2 1_555 1_555
Cu5_2 N4_2 1_555 1_555
C3_2 N7 1_555 1_555
H11_2 C10_2 1_555 1_555
C13_2 N7 1_555 1_555
H15_2 C13_2 1_555 1_555
C4_2 H8_2 1_555 1_555
S1_2 C15_2 1_555 1_555
O1_2 C7_2 1_555 1_555
N1_2 C1_2 1_555 1_555
C1_2 H1_2 1_555 1_555
H2_2 C1_2 1_555 1_555
H3_2 C1_2 1_555 1_555
C2_2 N1_2 1_555 1_555
H4_2 C2_2 1_555 1_555
O3_2 C7_2 1_555 1_555
O5_2 C8_2 1_555 1_555
O12 C8_2 1_555 1_555
C5_2 N1_2 1_555 1_555
H9_2 C5_2 1_555 1_555
C7_2 C16_2 1_555 1_555
C8_2 C15_2 1_555 1_555
C11_2 H12_2 1_555 1_555
C14_2 C11_2 1_555 1_555
H16_2 C14_2 1_555 1_555
C15_2 C14_2 1_555 1_555
C16_2 S1_2 1_555 1_555
Cu4 O3_2 1_555 1_555
O8_2 Cu4 1_555 1_555
N7_2 Cu4 1_555 1_555
O4_2 Cu4 1_555 1_555
C11_2 C16_2 1_555 1_555
O2_2 Cu3 1_555 1_555
N2_2 Cu3 1_555 1_555
O4_3 Cu3 1_555 1_555
C3_3 N2_2 1_555 1_555
H7_3 C3_3 1_555 1_555
N3_3 C6_2 1_555 1_555
C4_3 H8_3 1_555 1_555
C6_2 C3_3 1_555 1_555
H10_2 C6_2 1_555 1_555
C9_3 C10_3 1_555 1_555
C10_3 C4_3 1_555 1_555
H11_3 C10_3 1_555 1_555
C12_3 N3_3 1_555 1_555
H13_3 C12_3 1_555 1_555
H14_3 C12_3 1_555 1_555
C13_3 N2_2 1_555 1_555
H15_3 C13_3 1_555 1_555
N4_3 C17_3 1_555 1_555
C17_3 H18_3 1_555 1_555
N5_2 C19_2 1_555 1_555
C18_3 C9_3 1_555 1_555
H19_3 C18_3 1_555 1_555
C19_2 C17_3 1_555 1_555
H20_2 C19_2 1_555 1_555
C20_2 C4_3 1_555 1_555
C21_3 C18_3 1_555 1_555
H21_3 C21_3 1_555 1_555
C22_2 N5_2 1_555 1_555
H22_2 C22_2 1_555 1_555
H23_2 C22_2 1_555 1_555
C23_3 N4_3 1_555 1_555
H24_3 C23_3 1_555 1_555
S2_2 C31_2 1_555 1_555
N6_2 C24_2 1_555 1_555
C24_2 H26_2 1_555 1_555
H27_2 C24_2 1_555 1_555
H28_2 C24_2 1_555 1_555
O9_2 Cu3 1_555 1_555
O10_2 C28_2 1_555 1_555
O13 C28_2 1_555 1_555
C26_2 N6_2 1_555 1_555
H32_2 C26_2 1_555 1_555
C27_2 O7_2 1_555 1_555
C28_2 C31_2 1_555 1_555
C29_2 H33_2 1_555 1_555
C30_2 C29_2 1_555 1_555
H34_2 C30_2 1_555 1_555
C31_2 C30_2 1_555 1_555
C32_2 S2_2 1_555 1_555
Cu5_3 N4_3 1_555 1_555
N3_3 C13_3 1_555 1_555
C9_3 C12_3 1_555 1_555
N5_2 C23_3 1_555 1_555
C20_2 C21_3 1_555 1_555
C20_2 C22_2 1_555 1_555
O9_2 C27_2 1_555 1_555
C27_2 C32_2 1_555 1_555
C29_2 C32_2 1_555 1_555
N3_4 C6_3 1_555 1_555
H10_3 C6_3 1_555 1_555
C12_4 N3_4 1_555 1_555
H13_4 C12_4 1_555 1_555
H14_4 C12_4 1_555 1_555
N4_4 C17_4 1_555 1_555
C17_4 H18_4 1_555 1_555
C18_4 C9_4 1_555 1_555
H19_4 C18_4 1_555 1_555
C21_4 C18_4 1_555 1_555
H21_4 C21_4 1_555 1_555
C23_4 N4_4 1_555 1_555
H24_4 C23_4 1_555 1_555
Cu5_4 N4_4 1_555 1_555
C9_4 C12_4 1_555 1_555
C3_4 N7_2 1_555 1_555
H7_4 C3_4 1_555 1_555
C4_4 H8_4 1_555 1_555
C10_4 C4_4 1_555 1_555
H11_4 C10_4 1_555 1_555
C13_4 N7_2 1_555 1_555
H15_4 C13_4 1_555 1_555
N5_3 C19_3 1_555 1_555
H20_3 C19_3 1_555 1_555
C20_3 C4_4 1_555 1_555
C22_3 N5_3 1_555 1_555
H22_3 C22_3 1_555 1_555
H23_3 C22_3 1_555 1_555
C20_3 C22_3 1_555 1_555
S1_3 C15_3 1_555 1_555
O5_3 C8_3 1_555 1_555
O6_2 C8_3 1_555 1_555
C8_3 C15_3 1_555 1_555
C11_3 H12_3 1_555 1_555
C14_3 C11_3 1_555 1_555
H16_3 C14_3 1_555 1_555
C15_3 C14_3 1_555 1_555
C16_3 S1_3 1_555 1_555
S2_3 C31_3 1_555 1_555
O10_3 C28_3 1_555 1_555
O11_2 C28_3 1_555 1_555
C28_3 C31_3 1_555 1_555
C29_3 H33_3 1_555 1_555
C30_3 C29_3 1_555 1_555
H34_3 C30_3 1_555 1_555
C31_3 C30_3 1_555 1_555
C32_3 S2_3 1_555 1_555
Cu5_3 O6_2 1_555 1_555
Cu5_4 O11_2 1_555 1_555
C11_3 C16_3 1_555 1_555
C29_3 C32_3 1_555 1_555
Cu5 O1_3 1_555 1_555
O1_3 C7_3 1_555 1_555
N1_3 C1_3 1_555 1_555
C1_3 H1_3 1_555 1_555
H2_3 C1_3 1_555 1_555
H3_3 C1_3 1_555 1_555
O2_3 Cu5 1_555 1_555
C2_3 N1_3 1_555 1_555
H4_3 C2_3 1_555 1_555
H5_3 C2_3 1_555 1_555
H6_3 C2_3 1_555 1_555
O3_3 C7_3 1_555 1_555
O4_4 Cu5 1_555 1_555
C5_3 N1_3 1_555 1_555
H9_3 C5_3 1_555 1_555
Cu5_2 O3_3 1_555 1_555
O7_3 Cu5_2 1_555 1_555
N6_3 C24_3 1_555 1_555
C24_3 H26_3 1_555 1_555
H27_3 C24_3 1_555 1_555
H28_3 C24_3 1_555 1_555
O8_3 Cu5_2 1_555 1_555
O9_3 Cu5 1_555 1_555
C26_3 N6_3 1_555 1_555
H32_3 C26_3 1_555 1_555
C27_3 O7_3 1_555 1_555
O12_2 Cu5 1_555 1_555
O13_2 Cu5_2 1_555 1_555
O2_3 C5_3 1_555 1_555
O4_4 Cu5_2 1_555 1_555
O8_3 C26_3 1_555 1_555
O9_3 C27_3 1_555 1_555
O2_4 Cu5_3 1_555 1_555
O4_5 Cu5_3 1_555 1_555
S2_4 C31_4 1_555 1_555
N6_4 C24_4 1_555 1_555
C24_4 H26_4 1_555 1_555
H27_4 C24_4 1_555 1_555
H28_4 C24_4 1_555 1_555
O9_4 Cu5_3 1_555 1_555
O10_4 C28_4 1_555 1_555
O13_2 C28_4 1_555 1_555
C26_4 N6_4 1_555 1_555
H32_4 C26_4 1_555 1_555
C27_4 O7_4 1_555 1_555
C28_4 C31_4 1_555 1_555
C29_4 H33_4 1_555 1_555
C30_4 C29_4 1_555 1_555
H34_4 C30_4 1_555 1_555
C31_4 C30_4 1_555 1_555
C32_4 S2_4 1_555 1_555
O9_4 C27_4 1_555 1_555
C27_4 C32_4 1_555 1_555
C29_4 C32_4 1_555 1_555
S1_4 C15_4 1_555 1_555
O1_4 C7_4 1_555 1_555
N1_4 C1_4 1_555 1_555
C1_4 H1_4 1_555 1_555
H2_4 C1_4 1_555 1_555
H3_4 C1_4 1_555 1_555
C2_4 N1_4 1_555 1_555
H4_4 C2_4 1_555 1_555
O3_4 C7_4 1_555 1_555
O5_4 C8_4 1_555 1_555
O12_2 C8_4 1_555 1_555
C5_4 N1_4 1_555 1_555
H9_4 C5_4 1_555 1_555
C7_4 C16_4 1_555 1_555
C8_4 C15_4 1_555 1_555
C11_4 H12_4 1_555 1_555
C14_4 C11_4 1_555 1_555
H16_4 C14_4 1_555 1_555
C15_4 C14_4 1_555 1_555
C16_4 S1_4 1_555 1_555
Cu5_4 O3_4 1_555 1_555
O8_4 Cu5_4 1_555 1_555
O4_6 Cu5_4 1_555 1_555
C11_4 C16_4 1_555 1_555
H20_4 C19_4 1_555 1_555
C22_4 N5_4 1_555 1_555
H22_4 C22_4 1_555 1_555
H23_4 C22_4 1_555 1_555
C20_4 C22_4 1_555 1_555
H29_2 C25_2 1_555 1_555
H30_4 C25_2 1_555 1_555
H31_4 C25_2 1_555 1_555
H10_4 C6_4 1_555 1_555
H29_3 C25_3 1_555 1_555
H29_4 C25_4 1_555 1_555

#END
