
###############################################################################
#
# This file contains modified crystal structure data generated from the
# MOF subset of the Cambridge Structural Database (CSD) v542 
# hosted by the Cambridge Crystallographic Data Centre (CCDC).
#
# This work is licensed under the Creative Commons
# Attribution-NonCommercial-ShareAlike 4.0 International License.
# To view a copy of this license, visit
# http://creativecommons.org/licenses/by-nc-sa/4.0/
# or send a letter to
# Creative Commons, PO Box 1866, Mountain View, CA 94042, USA.
#
# CIF created using the CSD Python API on 22 February 2021
# The structure has been converted into the P1 space group
# The structure has a 3D framework
# The original CSD entry XUFXOO is in the triclinic crystal system
# The framework has been calculated to contain at least 10.0% void space
# The void calculation uses a probe of radius 1.32A, grid spacing 0.4
#
###############################################################################

data_XUFXOO
_chemical_formula_moiety         '(C180 H116 N16 O36 Zn4)n'
_symmetry_cell_setting           triclinic
_symmetry_space_group_name_H-M   'P 1'
_symmetry_Int_Tables_number      1
_space_group_name_Hall           'P 1'
loop_
_symmetry_equiv_pos_site_id
_symmetry_equiv_pos_as_xyz
1 x,y,z
_cell_length_a                   16.0269(2)
_cell_length_b                   16.1423(3)
_cell_length_c                   23.5236(9)
_cell_angle_alpha                96.676(2)
_cell_angle_beta                 92.453(3)
_cell_angle_gamma                112.2310(10)
_cell_volume                     5570.25
loop_
_atom_site_label
_atom_site_type_symbol
_atom_site_fract_x
_atom_site_fract_y
_atom_site_fract_z
Zn11 Zn 0.83456(4) 0.03449(3) 0.35122(2)
O9 O 0.26437(19) 0.1879(2) 0.17411(16)
O10 O 0.3378(2) 0.4829(2) 0.12642(18)
O11 O 0.66947(19) 0.86132(18) 0.18053(12)
O12 O 0.60686(18) 0.87697(18) 0.09758(12)
O13 O 0.5610(2) 0.3551(2) 0.12227(18)
O14 O 0.72842(19) 0.06141(17) 0.08766(12)
O15 O 0.71062(18) 0.06046(18) 0.18095(12)
C31 C 0.0245(3) 0.0449(3) 0.16840(19)
C32 C 0.1156(3) 0.0950(3) 0.1880(2)
H18 H 0.137291 0.093573 0.225075
C33 C 0.1724(3) 0.1459(3) 0.1523(2)
C34 C 0.3234(3) 0.2643(3) 0.1552(2)
C35 C 0.3003(3) 0.3371(3) 0.1498(2)
H19 H 0.242454 0.334618 0.155778
C36 C 0.3660(3) 0.4139(3) 0.1351(2)
C37 C 0.4047(3) 0.5701(3) 0.1310(3)
C38 C 0.4575(3) 0.6117(3) 0.1801(2)
H20 H 0.450376 0.581498 0.212033
C39 C 0.5222(3) 0.6983(3) 0.1841(2)
H21 H 0.558289 0.725798 0.218349
C40 C 0.5332(3) 0.7438(3) 0.13772(19)
C41 C 0.6085(3) 0.8356(3) 0.13914(19)
C42 C 0.4769(3) 0.7009(3) 0.0879(2)
H22 H 0.482525 0.731474 0.056166
C43 C 0.4124(4) 0.6136(3) 0.0840(3)
H23 H 0.375389 0.585330 0.050168
C44 C 0.4530(3) 0.4192(3) 0.1270(2)
H24 H 0.496831 0.471810 0.117815
C45 C 0.4726(3) 0.3449(3) 0.1329(2)
C46 C 0.5921(3) 0.2870(3) 0.1268(3)
C47 C 0.5947(3) 0.2535(3) 0.1771(2)
H25 H 0.571544 0.273454 0.209120
C48 C 0.6322(3) 0.1896(3) 0.1800(2)
H26 H 0.634827 0.166970 0.214395
C49 C 0.6660(3) 0.1587(3) 0.13238(19)
C50 C 0.7061(3) 0.0879(3) 0.1341(2)
C51 C 0.6629(3) 0.1942(3) 0.0828(2)
H27 H 0.685785 0.174853 0.050465
C52 C 0.6260(3) 0.2583(3) 0.0801(2)
H28 H 0.624475 0.282129 0.046120
C53 C 0.4080(3) 0.2666(3) 0.1468(2)
H29 H 0.421828 0.216310 0.150384
C54 C 0.1413(3) 0.1485(3) 0.0981(2)
H30 H 0.180574 0.182701 0.073987
C55 C 0.0513(3) 0.1003(3) 0.0791(2)
H31 H 0.030342 0.101936 0.041949
Zn8 Zn 0.77841(3) 0.98192(3) 0.20683(2)
Zn13 Zn 0.72738(3) 0.93609(3) 0.06317(2)
O3 O 0.2169(2) 0.4802(2) 0.2570(2)
O4 O 0.2945(2) 0.7898(2) 0.2429(2)
O5 O 0.72632(17) 0.99378(18) 0.28566(11)
O6 O 0.6963(2) 0.9596(2) 0.37092(13)
C2 C 0.0225(3) 0.2255(3) 0.2679(2)
C3 C 0.0269(3) 0.2621(3) 0.2179(2)
C4 C 0.0908(4) 0.3462(3) 0.2141(3)
H2 H 0.093290 0.370049 0.179782
C5 C 0.1504(3) 0.3948(3) 0.2600(3)
C6 C 0.1891(3) 0.5521(3) 0.2603(2)
C7 C 0.2570(3) 0.6333(3) 0.2519(3)
H3 H 0.314521 0.636753 0.243919
C8 C 0.2351(3) 0.7076(3) 0.2559(3)
C9 C 0.3871(3) 0.8249(3) 0.2635(3)
C10 C 0.4440(3) 0.8797(3) 0.2296(3)
H4 H 0.421674 0.887395 0.194328
C11 C 0.5364(3) 0.9244(3) 0.2483(2)
H5 H 0.574884 0.963452 0.225927
C12 C 0.5703(3) 0.9107(3) 0.2992(2)
C13 C 0.6692(3) 0.9564(3) 0.3198(2)
H7 H 0.034711 0.136479 0.539278
H8 H 0.033844 0.125028 0.435466
C77 C 0.5096(3) 0.8538(3) 0.3327(3)
H49 H 0.531341 0.845147 0.367910
C78 C 0.4176(3) 0.8097(3) 0.3146(3)
H50 H 0.378280 0.771083 0.336728
C79 C 0.1505(3) 0.7033(3) 0.2674(3)
H51 H 0.137489 0.755076 0.270562
C80 C 0.0851(3) 0.6212(3) 0.2742(3)
C88 C 0.1033(3) 0.5451(3) 0.2706(2)
H56 H 0.058715 0.489807 0.275066
C89 C 0.1492(4) 0.3605(4) 0.3105(3)
H57 H 0.191007 0.393194 0.341619
C90 C 0.0843(4) 0.2758(3) 0.3142(3)
H58 H 0.082206 0.252114 0.348614
C29 C 0.8923(3) 0.0022(3) 0.09502(19)
C30 C 0.9915(3) 0.0490(3) 0.11483(18)
H17 H 0.986092 0.008601 0.192080
O1 O 0.88566(19) 0.10271(18) 0.23225(12)
O2 O 0.95271(19) 0.1027(2) 0.31748(13)
O16 O 0.9967(2) 0.6084(2) 0.2862(2)
O17 O 0.8475(2) 0.91503(19) 0.33154(13)
O18 O 0.84504(19) 0.90506(18) 0.23617(12)
N1 N 0.8952(2) 0.0553(2) 0.43167(15)
N2 N 0.8972(3) 0.0663(3) 0.52460(15)
C1 C 0.9488(3) 0.1362(3) 0.2732(2)
H1 H 0.986141 0.229632 0.186262
C14 C 0.8466(3) 0.0353(3) 0.47541(19)
H6 H 0.784268 0.003325 0.471982
C15 C 0.9842(4) 0.1084(4) 0.5127(2)
C16 C 0.9834(4) 0.1020(4) 0.4557(2)
C17 C 0.8634(3) 0.0571(3) 0.57959(19)
C18 C 0.7804(4) 0.0621(3) 0.5880(2)
H9 H 0.747308 0.071414 0.557707
C19 C 0.7466(4) 0.0535(3) 0.6401(2)
H10 H 0.690441 0.056280 0.645134
C20 C 0.7959(3) 0.0406(3) 0.68562(18)
C21 C 0.8810(3) 0.0386(3) 0.67728(19)
H11 H 0.915468 0.031895 0.707923
C22 C 0.9143(3) 0.0462(3) 0.62468(19)
H12 H 0.970648 0.043961 0.619409
C23 C 0.7580(3) 0.0280(3) 0.74178(19)
C75 C 0.7813(3) 0.0562(3) 0.84431(19)
H47 H 0.818417 0.085197 0.878031
C76 C 0.8147(3) 0.0713(3) 0.79222(19)
H48 H 0.874361 0.109993 0.790393
C81 C 0.9649(3) 0.6765(3) 0.2832(3)
C82 C 0.9646(3) 0.7145(3) 0.2343(3)
H52 H 0.988769 0.697431 0.201917
C83 C 0.9274(3) 0.7791(3) 0.2342(2)
H53 H 0.926152 0.804806 0.200981
C84 C 0.8920(3) 0.8065(3) 0.2818(2)
C85 C 0.8576(3) 0.8812(3) 0.2828(2)
C86 C 0.8924(3) 0.7656(3) 0.3295(2)
H54 H 0.868813 0.782751 0.362190
C87 C 0.9269(3) 0.6996(3) 0.3300(3)
H55 H 0.924346 0.670759 0.362275
N9 N 0.8189(3) 0.1583(2) 0.36386(16)
O7 O 0.83448(17) 0.96600(17) 0.12918(11)
O8 O 0.86443(18) 0.99856(19) 0.04382(12)
N5 N 0.7278(2) 0.8068(2) 0.04712(15)
N6 N 0.7272(3) 0.6808(2) 0.07357(16)
N7 N 0.8133(3) 0.2814(3) 0.33676(18)
C56 C 0.7536(3) 0.7707(3) 0.08715(19)
H32 H 0.786636 0.803360 0.121510
C57 C 0.6812(4) 0.6585(3) 0.0199(2)
C58 C 0.6830(3) 0.7368(3) 0.0048(2)
C59 C 0.7386(3) 0.6220(3) 0.1110(2)
C60 C 0.7219(3) 0.6331(3) 0.1662(2)
H35 H 0.701023 0.677655 0.179459
C61 C 0.7356(3) 0.5782(3) 0.2032(2)
H36 H 0.723931 0.586532 0.241349
C62 C 0.7659(3) 0.5120(3) 0.1852(2)
C63 C 0.7801(4) 0.5004(4) 0.1284(3)
H37 H 0.798873 0.454498 0.114638
C64 C 0.7673(4) 0.5550(4) 0.0915(3)
H38 H 0.778036 0.546497 0.053194
C65 C 0.7814(3) 0.4542(3) 0.2256(2)
C66 C 0.8282(3) 0.3991(4) 0.2110(3)
H39 H 0.852490 0.399876 0.175819
C67 C 0.8390(4) 0.3425(4) 0.2487(2)
H40 H 0.869937 0.305383 0.238341
C68 C 0.8047(4) 0.3416(3) 0.3000(2)
C69 C 0.7987(3) 0.1945(3) 0.3215(2)
H41 H 0.776623 0.163396 0.284721
C70 C 0.8464(5) 0.2258(4) 0.4097(3)
H42 H 0.863599 0.219455 0.446667
C71 C 0.8451(6) 0.3027(5) 0.3939(3)
H43 H 0.862094 0.358484 0.416818
C72 C 0.7590(5) 0.3970(4) 0.3153(3)
H44 H 0.736964 0.397979 0.351189
C73 C 0.7460(5) 0.4514(4) 0.2769(3)
H45 H 0.712478 0.486182 0.286648
N3 N 0.6628(2) 0.9770(2) 0.90163(14)
N4 N 0.6670(2) 0.9388(2) 0.98697(14)
C24 C 0.6677(3) 0.9729(3) 0.7458(2)
H13 H 0.629009 0.946280 0.712429
C25 C 0.6351(3) 0.9574(3) 0.79819(19)
H14 H 0.575134 0.920030 0.800557
C26 C 0.6931(3) 0.9983(3) 0.84711(17)
C27 C 0.5780(3) 0.9596(3) 0.9198(2)
H15 H 0.528549 0.963200 0.899675
C28 C 0.5815(3) 0.9364(3) 0.9722(2)
H16 H 0.533782 0.920898 0.995262
H33 H 0.654491 0.601239 0.998507
H34 H 0.656977 0.742333 0.970062
C74 C 0.7132(3) 0.9623(3) 0.94304(18)
H46 H 0.772867 0.968015 0.940839
Zn1 Zn 0.22159(3) 0.01808(3) 0.79317(2)
N3_2 N 0.3372(2) 0.0230(2) 0.09837(14)
N4_2 N 0.3330(2) 0.0612(2) 0.01303(14)
C24_2 C 0.3323(3) 0.0271(3) 0.2542(2)
H13_2 H 0.370991 0.053720 0.287571
C25_2 C 0.3649(3) 0.0426(3) 0.20181(19)
H14_2 H 0.424866 0.079970 0.199443
C26_2 C 0.3069(3) 0.0017(3) 0.15289(17)
C27_2 C 0.4220(3) 0.0404(3) 0.0802(2)
H15_2 H 0.471451 0.036800 0.100325
C28_2 C 0.4185(3) 0.0636(3) 0.0278(2)
H16_2 H 0.466218 0.079102 0.004738
H33_2 H 0.345509 0.398761 0.001493
H34_2 H 0.343023 0.257667 0.029938
C74_2 C 0.2868(3) 0.0377(3) 0.05696(18)
H46_2 H 0.227133 0.031985 0.059161
O19 O 0.27368(17) 0.00622(18) 0.71434(11)
O20 O 0.3037(2) 0.0404(2) 0.62908(13)
O21 O 0.16552(17) 0.03400(17) 0.87082(11)
O22 O 0.33053(19) 0.13868(18) 0.81947(12)
O26 O 0.1525(2) 0.08497(19) 0.66846(13)
O27 O 0.15496(19) 0.09494(18) 0.76383(12)
Zn3 Zn 0.27262(3) 0.06391(3) 0.93683(2)
O8_2 O 0.13557(18) 0.00144(19) 0.95618(12)
N5_2 N 0.2722(2) 0.1932(2) 0.95288(15)
N6_2 N 0.2728(3) 0.3192(2) 0.92643(16)
N7_2 N 0.1867(3) 0.7186(3) 0.66324(18)
N8 N 0.1811(3) 0.8417(2) 0.63614(16)
C56_2 C 0.2464(3) 0.2293(3) 0.91285(19)
H32_2 H 0.213364 0.196640 0.878490
C57_2 C 0.3188(4) 0.3415(3) 0.9801(2)
C58_2 C 0.3170(3) 0.2632(3) 0.9952(2)
C59_2 C 0.2614(3) 0.3780(3) 0.8890(2)
C60_2 C 0.2781(3) 0.3669(3) 0.8338(2)
H35_2 H 0.298977 0.322345 0.820541
C61_2 C 0.2644(3) 0.4218(3) 0.7968(2)
H36_2 H 0.276069 0.413468 0.758651
C62_2 C 0.2341(3) 0.4880(3) 0.8148(2)
C63_2 C 0.2199(4) 0.4996(4) 0.8716(3)
H37_2 H 0.201127 0.545502 0.885362
C64_2 C 0.2327(4) 0.4450(4) 0.9085(3)
H38_2 H 0.221964 0.453503 0.946806
C65_2 C 0.2186(3) 0.5458(3) 0.7744(2)
C66_2 C 0.1718(3) 0.6009(4) 0.7890(3)
H39_2 H 0.147510 0.600124 0.824181
C67_2 C 0.1610(4) 0.6575(4) 0.7513(2)
H40_2 H 0.130063 0.694617 0.761659
C68_2 C 0.1953(4) 0.6584(3) 0.7000(2)
C69_2 C 0.2013(3) 0.8055(3) 0.6785(2)
H41_2 H 0.223377 0.836604 0.715279
C70_2 C 0.1536(5) 0.7742(4) 0.5903(3)
H42_2 H 0.136401 0.780545 0.553333
C71_2 C 0.1549(6) 0.6973(5) 0.6061(3)
H43_2 H 0.137906 0.641516 0.583182
C72_2 C 0.2410(5) 0.6030(4) 0.6847(3)
H44_2 H 0.263036 0.602021 0.648811
C73_2 C 0.2540(5) 0.5486(4) 0.7231(3)
H45_2 H 0.287522 0.513818 0.713352
Zn9 Zn 0.16544(4) 0.96551(3) 0.64878(2)
O23 O 0.39314(18) 0.12303(18) 0.90242(12)
O1_2 O 0.11434(19) 0.89729(18) 0.76775(12)
O2_2 O 0.04729(19) 0.8973(2) 0.68252(13)
O16_2 O 0.0033(2) 0.3916(2) 0.7138(2)
N1_2 N 0.1048(2) 0.9447(2) 0.56833(15)
N2_2 N 0.1028(3) 0.9337(3) 0.47540(15)
C1_2 C 0.0512(3) 0.8638(3) 0.7268(2)
H1_2 H 0.013859 0.770368 0.813738
C14_2 C 0.1534(3) 0.9647(3) 0.52459(19)
H6_2 H 0.215732 0.996675 0.528018
C15_2 C 0.0158(4) 0.8916(4) 0.4873(2)
C16_2 C 0.0166(4) 0.8980(4) 0.5443(2)
C17_2 C 0.1366(3) 0.9429(3) 0.42041(19)
C18_2 C 0.2196(4) 0.9379(3) 0.4120(2)
H9_2 H 0.252692 0.928586 0.442293
C19_2 C 0.2534(4) 0.9465(3) 0.3599(2)
H10_2 H 0.309559 0.943720 0.354866
C20_2 C 0.2041(3) 0.9594(3) 0.31438(18)
C21_2 C 0.1190(3) 0.9614(3) 0.32272(19)
H11_2 H 0.084532 0.968105 0.292077
C22_2 C 0.0857(3) 0.9538(3) 0.37532(19)
H12_2 H 0.029352 0.956039 0.380591
C23_2 C 0.2420(3) 0.9720(3) 0.25822(19)
C75_2 C 0.2187(3) 0.9438(3) 0.15569(19)
H47_2 H 0.181583 0.914803 0.121969
C76_2 C 0.1853(3) 0.9287(3) 0.20778(19)
H48_2 H 0.125639 0.890007 0.209607
C81_2 C 0.0351(3) 0.3235(3) 0.7168(3)
C82_2 C 0.0354(3) 0.2855(3) 0.7657(3)
H52_2 H 0.011231 0.302569 0.798083
C83_2 C 0.0726(3) 0.2209(3) 0.7658(2)
H53_2 H 0.073848 0.195194 0.799019
C84_2 C 0.1080(3) 0.1935(3) 0.7182(2)
C85_2 C 0.1424(3) 0.1188(3) 0.7172(2)
C86_2 C 0.1076(3) 0.2344(3) 0.6705(2)
H54_2 H 0.131187 0.217249 0.637810
C87_2 C 0.0731(3) 0.3004(3) 0.6700(3)
H55_2 H 0.075654 0.329241 0.637725
O25 O 0.28938(18) 0.93954(18) 0.81905(12)
C29_2 C 0.1077(3) 0.9978(3) 0.90498(19)
C30_2 C 0.0085(3) 0.9510(3) 0.88517(18)
H17_2 H 0.013908 0.991399 0.807920
O24 O 0.27158(19) 0.93859(17) 0.91234(12)
O3_2 O 0.7831(2) 0.5198(2) 0.7430(2)
O4_2 O 0.7055(2) 0.2102(2) 0.7571(2)
C2_2 C 0.9775(3) 0.7745(3) 0.7321(2)
C3_2 C 0.9731(3) 0.7379(3) 0.7821(2)
C4_2 C 0.9092(4) 0.6538(3) 0.7859(3)
H2_2 H 0.906710 0.629951 0.820218
C5_2 C 0.8496(3) 0.6052(3) 0.7400(3)
C6_2 C 0.8109(3) 0.4479(3) 0.7397(2)
C7_2 C 0.7430(3) 0.3667(3) 0.7481(3)
H3_2 H 0.685479 0.363247 0.756081
C8_2 C 0.7649(3) 0.2924(3) 0.7441(3)
C9_2 C 0.6129(3) 0.1751(3) 0.7365(3)
C10_2 C 0.5560(3) 0.1203(3) 0.7704(3)
H4_2 H 0.578326 0.112605 0.805672
C11_2 C 0.4636(3) 0.0756(3) 0.7517(2)
H5_2 H 0.425116 0.036548 0.774073
C12_2 C 0.4297(3) 0.0893(3) 0.7008(2)
C13_2 C 0.3308(3) 0.0436(3) 0.6802(2)
H7_2 H 0.965289 0.863521 0.460722
H8_2 H 0.966156 0.874972 0.564534
C77_2 C 0.4904(3) 0.1462(3) 0.6673(3)
H49_2 H 0.468659 0.154853 0.632090
C78_2 C 0.5824(3) 0.1903(3) 0.6854(3)
H50_2 H 0.621720 0.228917 0.663272
C79_2 C 0.8495(3) 0.2967(3) 0.7326(3)
H51_2 H 0.862511 0.244924 0.729438
C80_2 C 0.9149(3) 0.3788(3) 0.7258(3)
C88_2 C 0.8967(3) 0.4549(3) 0.7294(2)
H56_2 H 0.941285 0.510193 0.724934
C89_2 C 0.8508(4) 0.6395(4) 0.6895(3)
H57_2 H 0.808993 0.606806 0.658381
C90_2 C 0.9157(4) 0.7242(3) 0.6858(3)
H58_2 H 0.917794 0.747886 0.651386
O9_2 O 0.73563(19) 0.8121(2) 0.82589(16)
O10_2 O 0.6622(2) 0.5171(2) 0.87358(18)
O13_2 O 0.4390(2) 0.6449(2) 0.87773(18)
C31_2 C 0.9755(3) 0.9551(3) 0.83160(19)
C32_2 C 0.8844(3) 0.9050(3) 0.8120(2)
H18_2 H 0.862709 0.906427 0.774925
C33_2 C 0.8276(3) 0.8541(3) 0.8477(2)
C34_2 C 0.6766(3) 0.7357(3) 0.8448(2)
C35_2 C 0.6997(3) 0.6629(3) 0.8502(2)
H19_2 H 0.757546 0.665382 0.844222
C36_2 C 0.6340(3) 0.5861(3) 0.8649(2)
C37_2 C 0.5953(3) 0.4299(3) 0.8690(3)
C38_2 C 0.5425(3) 0.3883(3) 0.8199(2)
H20_2 H 0.549624 0.418502 0.787967
C39_2 C 0.4778(3) 0.3017(3) 0.8159(2)
H21_2 H 0.441711 0.274202 0.781651
C40_2 C 0.4668(3) 0.2562(3) 0.86228(19)
C41_2 C 0.3915(3) 0.1644(3) 0.86086(19)
C42_2 C 0.5231(3) 0.2991(3) 0.9121(2)
H22_2 H 0.517475 0.268526 0.943834
C43_2 C 0.5876(4) 0.3864(3) 0.9160(3)
H23_2 H 0.624611 0.414670 0.949832
C44_2 C 0.5470(3) 0.5808(3) 0.8730(2)
H24_2 H 0.503169 0.528190 0.882185
C45_2 C 0.5274(3) 0.6551(3) 0.8671(2)
C46_2 C 0.4079(3) 0.7130(3) 0.8732(3)
C47_2 C 0.4053(3) 0.7465(3) 0.8229(2)
H25_2 H 0.428456 0.726546 0.790880
C48_2 C 0.3678(3) 0.8104(3) 0.8200(2)
H26_2 H 0.365173 0.833030 0.785605
C49_2 C 0.3340(3) 0.8413(3) 0.86762(19)
C50_2 C 0.2939(3) 0.9121(3) 0.8659(2)
C51_2 C 0.3371(3) 0.8058(3) 0.9172(2)
H27_2 H 0.314215 0.825147 0.949535
C52_2 C 0.3740(3) 0.7417(3) 0.9199(2)
H28_2 H 0.375525 0.717871 0.953880
C53_2 C 0.5920(3) 0.7334(3) 0.8532(2)
H29_2 H 0.578172 0.783690 0.849616
C54_2 C 0.8587(3) 0.8515(3) 0.9019(2)
H30_2 H 0.819426 0.817299 0.926013
C55_2 C 0.9487(3) 0.8997(3) 0.9209(2)
H31_2 H 0.969658 0.898064 0.958051
loop_
_geom_bond_atom_site_label_1
_geom_bond_atom_site_label_2
_geom_bond_site_symmetry_1
_geom_bond_site_symmetry_2
O9 C33 1_555 1_555
O10 C36 1_555 1_555
O11 C41 1_555 1_555
O12 C41 1_555 1_555
O13 C45 1_555 1_555
O14 C50 1_555 1_555
O15 C50 1_555 1_555
C32 C31 1_555 1_555
H18 C32 1_555 1_555
C33 C32 1_555 1_555
C34 O9 1_555 1_555
C35 C34 1_555 1_555
H19 C35 1_555 1_555
C36 C35 1_555 1_555
C37 O10 1_555 1_555
C38 C37 1_555 1_555
H20 C38 1_555 1_555
C39 C38 1_555 1_555
H21 C39 1_555 1_555
C40 C39 1_555 1_555
C41 C40 1_555 1_555
C42 C40 1_555 1_555
H22 C42 1_555 1_555
C43 C37 1_555 1_555
H23 C43 1_555 1_555
C44 C36 1_555 1_555
H24 C44 1_555 1_555
C45 C44 1_555 1_555
C46 O13 1_555 1_555
C47 C46 1_555 1_555
H25 C47 1_555 1_555
C48 C47 1_555 1_555
H26 C48 1_555 1_555
C49 C48 1_555 1_555
C50 C49 1_555 1_555
C51 C49 1_555 1_555
H27 C51 1_555 1_555
C52 C46 1_555 1_555
H28 C52 1_555 1_555
C53 C34 1_555 1_555
H29 C53 1_555 1_555
C54 C33 1_555 1_555
H30 C54 1_555 1_555
H31 C55 1_555 1_555
Zn8 O11 1_555 1_555
Zn13 O12 1_555 1_555
C42 C43 1_555 1_555
C45 C53 1_555 1_555
C51 C52 1_555 1_555
C54 C55 1_555 1_555
O3 C5 1_555 1_555
O4 C8 1_555 1_555
O5 C13 1_555 1_555
O6 C13 1_555 1_555
C2 C3 1_555 1_555
C4 C3 1_555 1_555
H2 C4 1_555 1_555
C5 C4 1_555 1_555
C6 O3 1_555 1_555
C7 C6 1_555 1_555
H3 C7 1_555 1_555
C8 C7 1_555 1_555
C9 O4 1_555 1_555
C10 C9 1_555 1_555
H4 C10 1_555 1_555
C11 C10 1_555 1_555
H5 C11 1_555 1_555
C12 C11 1_555 1_555
C13 C12 1_555 1_555
C77 C12 1_555 1_555
H49 C77 1_555 1_555
C78 C9 1_555 1_555
H50 C78 1_555 1_555
C79 C8 1_555 1_555
H51 C79 1_555 1_555
C80 C79 1_555 1_555
C88 C6 1_555 1_555
H56 C88 1_555 1_555
C89 C5 1_555 1_555
H57 C89 1_555 1_555
C90 C2 1_555 1_555
H58 C90 1_555 1_555
Zn8 O5 1_555 1_555
C77 C78 1_555 1_555
C80 C88 1_555 1_555
C89 C90 1_555 1_555
C30 C29 1_555 1_555
Zn11 O2 1_555 1_555
O1 C1 1_555 1_555
O2 C1 1_555 1_555
O17 C85 1_555 1_555
O18 C85 1_555 1_555
N1 Zn11 1_555 1_555
N2 C14 1_555 1_555
C14 N1 1_555 1_555
H6 C14 1_555 1_555
C15 N2 1_555 1_555
C16 N1 1_555 1_555
C17 N2 1_555 1_555
C18 C17 1_555 1_555
H9 C18 1_555 1_555
C19 C18 1_555 1_555
H10 C19 1_555 1_555
C20 C19 1_555 1_555
C21 C20 1_555 1_555
H11 C21 1_555 1_555
C22 C17 1_555 1_555
H12 C22 1_555 1_555
C23 C20 1_555 1_555
H47 C75 1_555 1_555
C76 C23 1_555 1_555
H48 C76 1_555 1_555
C81 O16 1_555 1_555
C82 C81 1_555 1_555
H52 C82 1_555 1_555
C83 C82 1_555 1_555
H53 C83 1_555 1_555
C84 C83 1_555 1_555
C85 C84 1_555 1_555
C86 C84 1_555 1_555
H54 C86 1_555 1_555
C87 C81 1_555 1_555
H55 C87 1_555 1_555
Zn8 O18 1_555 1_555
N9 Zn11 1_555 1_555
C15 C16 1_555 1_555
C21 C22 1_555 1_555
C75 C76 1_555 1_555
C86 C87 1_555 1_555
Zn13 O7 1_555 1_555
O8 Zn13 1_555 1_555
N5 Zn13 1_555 1_555
N6 C56 1_555 1_555
N7 C68 1_555 1_555
N9 C69 1_555 1_555
C56 N5 1_555 1_555
H32 C56 1_555 1_555
C57 N6 1_555 1_555
C58 N5 1_555 1_555
C59 N6 1_555 1_555
C60 C59 1_555 1_555
H35 C60 1_555 1_555
C61 C60 1_555 1_555
H36 C61 1_555 1_555
C62 C61 1_555 1_555
C63 C62 1_555 1_555
H37 C63 1_555 1_555
C64 C59 1_555 1_555
H38 C64 1_555 1_555
C65 C62 1_555 1_555
C66 C65 1_555 1_555
H39 C66 1_555 1_555
C67 C66 1_555 1_555
H40 C67 1_555 1_555
C68 C67 1_555 1_555
C69 N7 1_555 1_555
H41 C69 1_555 1_555
C70 N9 1_555 1_555
H42 C70 1_555 1_555
C71 N7 1_555 1_555
H43 C71 1_555 1_555
C72 C68 1_555 1_555
H44 C72 1_555 1_555
C73 C65 1_555 1_555
H45 C73 1_555 1_555
Zn8 O7 1_555 1_555
C57 C58 1_555 1_555
C63 C64 1_555 1_555
C70 C71 1_555 1_555
C72 C73 1_555 1_555
N3 C26 1_555 1_555
H13 C24 1_555 1_555
C25 C24 1_555 1_555
H14 C25 1_555 1_555
C26 C25 1_555 1_555
C27 N3 1_555 1_555
H15 C27 1_555 1_555
C28 N4 1_555 1_555
H16 C28 1_555 1_555
C74 N3 1_555 1_555
H46 C74 1_555 1_555
N4 C74 1_555 1_555
C27 C28 1_555 1_555
N3_2 C26_2 1_555 1_555
H13_2 C24_2 1_555 1_555
C25_2 C24_2 1_555 1_555
H14_2 C25_2 1_555 1_555
C26_2 C25_2 1_555 1_555
C27_2 N3_2 1_555 1_555
H15_2 C27_2 1_555 1_555
C28_2 N4_2 1_555 1_555
H16_2 C28_2 1_555 1_555
C74_2 N3_2 1_555 1_555
H46_2 C74_2 1_555 1_555
O19 Zn1 1_555 1_555
O21 Zn1 1_555 1_555
O22 Zn1 1_555 1_555
O27 Zn1 1_555 1_555
N4_2 C74_2 1_555 1_555
C27_2 C28_2 1_555 1_555
Zn3 O21 1_555 1_555
O8_2 Zn3 1_555 1_555
N5_2 Zn3 1_555 1_555
N6_2 C56_2 1_555 1_555
N7_2 C68_2 1_555 1_555
N8 C69_2 1_555 1_555
C56_2 N5_2 1_555 1_555
H32_2 C56_2 1_555 1_555
C57_2 N6_2 1_555 1_555
C58_2 N5_2 1_555 1_555
C59_2 N6_2 1_555 1_555
C60_2 C59_2 1_555 1_555
H35_2 C60_2 1_555 1_555
C61_2 C60_2 1_555 1_555
H36_2 C61_2 1_555 1_555
C62_2 C61_2 1_555 1_555
C63_2 C62_2 1_555 1_555
H37_2 C63_2 1_555 1_555
C64_2 C59_2 1_555 1_555
H38_2 C64_2 1_555 1_555
C65_2 C62_2 1_555 1_555
C66_2 C65_2 1_555 1_555
H39_2 C66_2 1_555 1_555
C67_2 C66_2 1_555 1_555
H40_2 C67_2 1_555 1_555
C68_2 C67_2 1_555 1_555
C69_2 N7_2 1_555 1_555
H41_2 C69_2 1_555 1_555
C70_2 N8 1_555 1_555
H42_2 C70_2 1_555 1_555
C71_2 N7_2 1_555 1_555
H43_2 C71_2 1_555 1_555
C72_2 C68_2 1_555 1_555
H44_2 C72_2 1_555 1_555
C73_2 C65_2 1_555 1_555
H45_2 C73_2 1_555 1_555
Zn9 N8 1_555 1_555
O23 Zn3 1_555 1_555
C57_2 C58_2 1_555 1_555
C63_2 C64_2 1_555 1_555
C70_2 C71_2 1_555 1_555
C72_2 C73_2 1_555 1_555
Zn9 O2_2 1_555 1_555
O1_2 C1_2 1_555 1_555
O2_2 C1_2 1_555 1_555
O26 C85_2 1_555 1_555
O27 C85_2 1_555 1_555
N1_2 Zn9 1_555 1_555
N2_2 C14_2 1_555 1_555
C14_2 N1_2 1_555 1_555
H6_2 C14_2 1_555 1_555
C15_2 N2_2 1_555 1_555
C16_2 N1_2 1_555 1_555
C17_2 N2_2 1_555 1_555
C18_2 C17_2 1_555 1_555
H9_2 C18_2 1_555 1_555
C19_2 C18_2 1_555 1_555
H10_2 C19_2 1_555 1_555
C20_2 C19_2 1_555 1_555
C21_2 C20_2 1_555 1_555
H11_2 C21_2 1_555 1_555
C22_2 C17_2 1_555 1_555
H12_2 C22_2 1_555 1_555
C23_2 C20_2 1_555 1_555
H47_2 C75_2 1_555 1_555
C76_2 C23_2 1_555 1_555
H48_2 C76_2 1_555 1_555
C81_2 O16_2 1_555 1_555
C82_2 C81_2 1_555 1_555
H52_2 C82_2 1_555 1_555
C83_2 C82_2 1_555 1_555
H53_2 C83_2 1_555 1_555
C84_2 C83_2 1_555 1_555
C85_2 C84_2 1_555 1_555
C86_2 C84_2 1_555 1_555
H54_2 C86_2 1_555 1_555
C87_2 C81_2 1_555 1_555
H55_2 C87_2 1_555 1_555
C15_2 C16_2 1_555 1_555
C21_2 C22_2 1_555 1_555
C75_2 C76_2 1_555 1_555
C86_2 C87_2 1_555 1_555
C30_2 C29_2 1_555 1_555
O3_2 C5_2 1_555 1_555
O4_2 C8_2 1_555 1_555
O19 C13_2 1_555 1_555
O20 C13_2 1_555 1_555
C2_2 C3_2 1_555 1_555
C4_2 C3_2 1_555 1_555
H2_2 C4_2 1_555 1_555
C5_2 C4_2 1_555 1_555
C6_2 O3_2 1_555 1_555
C7_2 C6_2 1_555 1_555
H3_2 C7_2 1_555 1_555
C8_2 C7_2 1_555 1_555
C9_2 O4_2 1_555 1_555
C10_2 C9_2 1_555 1_555
H4_2 C10_2 1_555 1_555
C11_2 C10_2 1_555 1_555
H5_2 C11_2 1_555 1_555
C12_2 C11_2 1_555 1_555
C13_2 C12_2 1_555 1_555
C77_2 C12_2 1_555 1_555
H49_2 C77_2 1_555 1_555
C78_2 C9_2 1_555 1_555
H50_2 C78_2 1_555 1_555
C79_2 C8_2 1_555 1_555
H51_2 C79_2 1_555 1_555
C80_2 C79_2 1_555 1_555
C88_2 C6_2 1_555 1_555
H56_2 C88_2 1_555 1_555
C89_2 C5_2 1_555 1_555
H57_2 C89_2 1_555 1_555
C90_2 C2_2 1_555 1_555
H58_2 C90_2 1_555 1_555
C77_2 C78_2 1_555 1_555
C80_2 C88_2 1_555 1_555
C89_2 C90_2 1_555 1_555
O9_2 C33_2 1_555 1_555
O10_2 C36_2 1_555 1_555
O22 C41_2 1_555 1_555
O23 C41_2 1_555 1_555
O13_2 C45_2 1_555 1_555
O24 C50_2 1_555 1_555
O25 C50_2 1_555 1_555
C32_2 C31_2 1_555 1_555
H18_2 C32_2 1_555 1_555
C33_2 C32_2 1_555 1_555
C34_2 O9_2 1_555 1_555
C35_2 C34_2 1_555 1_555
H19_2 C35_2 1_555 1_555
C36_2 C35_2 1_555 1_555
C37_2 O10_2 1_555 1_555
C38_2 C37_2 1_555 1_555
H20_2 C38_2 1_555 1_555
C39_2 C38_2 1_555 1_555
H21_2 C39_2 1_555 1_555
C40_2 C39_2 1_555 1_555
C41_2 C40_2 1_555 1_555
C42_2 C40_2 1_555 1_555
H22_2 C42_2 1_555 1_555
C43_2 C37_2 1_555 1_555
H23_2 C43_2 1_555 1_555
C44_2 C36_2 1_555 1_555
H24_2 C44_2 1_555 1_555
C45_2 C44_2 1_555 1_555
C46_2 O13_2 1_555 1_555
C47_2 C46_2 1_555 1_555
H25_2 C47_2 1_555 1_555
C48_2 C47_2 1_555 1_555
H26_2 C48_2 1_555 1_555
C49_2 C48_2 1_555 1_555
C50_2 C49_2 1_555 1_555
C51_2 C49_2 1_555 1_555
H27_2 C51_2 1_555 1_555
C52_2 C46_2 1_555 1_555
H28_2 C52_2 1_555 1_555
C53_2 C34_2 1_555 1_555
H29_2 C53_2 1_555 1_555
C54_2 C33_2 1_555 1_555
H30_2 C54_2 1_555 1_555
H31_2 C55_2 1_555 1_555
C42_2 C43_2 1_555 1_555
C45_2 C53_2 1_555 1_555
C51_2 C52_2 1_555 1_555
C54_2 C55_2 1_555 1_555

#END
