
###############################################################################
#
# This file contains modified crystal structure data generated from the
# MOF subset of the Cambridge Structural Database (CSD) v542 
# hosted by the Cambridge Crystallographic Data Centre (CCDC).
#
# This work is licensed under the Creative Commons
# Attribution-NonCommercial-ShareAlike 4.0 International License.
# To view a copy of this license, visit
# http://creativecommons.org/licenses/by-nc-sa/4.0/
# or send a letter to
# Creative Commons, PO Box 1866, Mountain View, CA 94042, USA.
#
# CIF created using the CSD Python API on 22 February 2021
# The structure has been converted into the P1 space group
# The structure has a 3D framework
# The original CSD entry XUNBAM is in the orthorhombic crystal system
# The framework has been calculated to contain at least 10.0% void space
# The void calculation uses a probe of radius 1.32A, grid spacing 0.4
#
###############################################################################

data_XUNBAM
_chemical_formula_moiety         '(C176 H96 Cu8 N32 O32 S16)n'
_symmetry_cell_setting           triclinic
_symmetry_space_group_name_H-M   'P 1'
_symmetry_Int_Tables_number      1
_space_group_name_Hall           'P 1'
loop_
_symmetry_equiv_pos_site_id
_symmetry_equiv_pos_as_xyz
1 x,y,z
_cell_length_a                   18.3629(2)
_cell_length_b                   16.9632(2)
_cell_length_c                   16.42350(11)
_cell_angle_alpha                90
_cell_angle_beta                 90
_cell_angle_gamma                90
_cell_volume                     5115.81
loop_
_atom_site_label
_atom_site_type_symbol
_atom_site_fract_x
_atom_site_fract_y
_atom_site_fract_z
Cu2 Cu 0.56083(2) 0.03523(3) 0.40683(3)
S1 S 0.62941(5) 0.60873(5) 0.46814(6)
S2 S 0.48931(5) 0.45888(5) 0.35525(6)
O4 O 0.45579(14) 0.03473(14) 0.37972(17)
N1 N 0.51674(18) 0.61954(18) 0.3734(2)
N2 N 0.56517(17) 0.90832(18) 0.40228(19)
N3 N 0.60124(18) 0.44840(18) 0.4510(2)
N4 N 0.55612(16) 0.15975(18) 0.41087(18)
C1 C 0.6050(2) 0.2009(2) 0.4522(3)
H1 H 0.640269 0.173759 0.481593
C2 C 0.6142(2) 0.8700(2) 0.4458(2)
H2 H 0.648621 0.899232 0.474396
C3 C 0.5062(2) 0.1989(2) 0.3691(3)
H3 H 0.472121 0.170553 0.339142
C4 C 0.6059(2) 0.2815(2) 0.4537(3)
H4 H 0.641337 0.308393 0.483153
H5 H 0.291094 0.000086 0.169996
C8 C 0.5177(2) 0.8653(2) 0.3602(2)
H6 H 0.483608 0.891316 0.328074
C9 C 0.5164(2) 0.7853(2) 0.3618(2)
H7 H 0.482129 0.757583 0.331474
C11 C 0.5869(2) 0.5247(2) 0.4371(2)
C12 C 0.5651(2) 0.6604(2) 0.4123(2)
C13 C 0.5535(2) 0.4073(2) 0.4112(2)
C15 C 0.5028(2) 0.2794(2) 0.3682(3)
H8 H 0.466475 0.305067 0.338863
C16 C 0.5667(2) 0.7458(2) 0.4092(2)
C17 C 0.5301(2) 0.5432(2) 0.3880(2)
C18 C 0.3439(2) 0.0021(3) 0.2759(2)
H9 H 0.388001 0.019381 0.254475
C19 C 0.5537(2) 0.3221(2) 0.4111(2)
C20 C 0.6171(2) 0.7897(2) 0.4511(3)
H10 H 0.652655 0.765169 0.482555
O5 O 0.59359(14) 0.04433(17) 0.27224(17)
O6 O 0.59412(14) 0.03762(15) 0.52364(16)
O7 O 0.66946(15) 0.03626(16) 0.37367(17)
O1 O 0.09359(14) 0.95567(17) 0.22776(17)
O2 O 0.40588(14) 0.96238(15) 0.47636(16)
O3 O 0.16946(15) 0.96374(16) 0.12633(17)
C5 C 0.2193(2) 0.9684(2) 0.2571(2)
C6 C 0.2860(2) 0.9916(3) 0.2257(2)
C7 C 0.1566(2) 0.9613(2) 0.2014(2)
C10 C 0.40447(19) 0.9959(2) 0.4095(2)
C14 C 0.3383(2) 0.9874(2) 0.3587(2)
C21 C 0.2127(2) 0.9546(3) 0.3392(2)
H11 H 0.168216 0.939158 0.361020
C22 C 0.2744(2) 0.9643(3) 0.3904(3)
H12 H 0.270587 0.954647 0.445948
Cu3 Cu 0.06083(2) 0.96477(3) 0.09317(3)
Cu4 Cu 0.43917(2) 0.96477(3) 0.59317(3)
N5 N 0.06517(17) 0.09168(18) 0.09772(19)
S1_2 S 0.12941(5) 0.39127(5) 0.03186(6)
N1_2 N 0.01674(18) 0.38046(18) 0.1266(2)
N3_2 N 0.10124(18) 0.55160(18) 0.0490(2)
N4_2 N 0.05612(16) 0.84025(18) 0.08913(18)
C1_2 C 0.1050(2) 0.7991(2) 0.0478(3)
H1_2 H 0.140269 0.826241 0.018407
C2_2 C 0.1142(2) 0.1300(2) 0.0542(2)
H2_2 H 0.148621 0.100768 0.025604
C3_2 C 0.0062(2) 0.8011(2) 0.1309(3)
C4_2 C 0.1059(2) 0.7185(2) 0.0463(3)
H4_2 H 0.141337 0.691607 0.016847
C8_2 C 0.0177(2) 0.1347(2) 0.1398(2)
C9_2 C 0.0164(2) 0.2147(2) 0.1382(2)
C11_2 C 0.0869(2) 0.4753(2) 0.0629(2)
C12_2 C 0.0651(2) 0.3396(2) 0.0877(2)
C13_2 C 0.0535(2) 0.5927(2) 0.0888(2)
C15_2 C 0.0028(2) 0.7206(2) 0.1318(3)
C16_2 C 0.0667(2) 0.2542(2) 0.0908(2)
C17_2 C 0.0301(2) 0.4568(2) 0.1120(2)
C19_2 C 0.0537(2) 0.6779(2) 0.0889(2)
C20_2 C 0.1171(2) 0.2103(2) 0.0489(3)
H10_2 H 0.152655 0.234831 0.017445
O6_2 O 0.09412(14) 0.96238(15) 0.97636(16)
O2_2 O 0.90588(14) 0.03762(15) 0.02364(16)
C5_2 C 0.7193(2) 0.0316(2) 0.2429(2)
C6_2 C 0.7860(2) 0.0084(3) 0.2743(2)
C7_2 C 0.6566(2) 0.0387(2) 0.2986(2)
C10_2 C 0.90447(19) 0.0041(2) 0.0905(2)
C14_2 C 0.8383(2) 0.0126(2) 0.1413(2)
C21_2 C 0.7127(2) 0.0454(3) 0.1608(2)
H11_2 H 0.668216 0.060842 0.138980
C22_2 C 0.7744(2) 0.0357(3) 0.1096(3)
H12_2 H 0.770587 0.045353 0.054052
Cu4_2 Cu 0.93917(2) 0.03523(3) 0.90683(3)
O1_2 O 0.90641(14) 0.04433(17) 0.77224(17)
O3_2 O 0.83054(15) 0.03626(16) 0.87367(17)
C5_3 C 0.7807(2) 0.0316(2) 0.7429(2)
C6_3 C 0.7140(2) 0.0084(3) 0.7743(2)
C7_3 C 0.8434(2) 0.0387(2) 0.7986(2)
C10_3 C 0.59553(19) 0.0041(2) 0.5905(2)
C14_3 C 0.6617(2) 0.0126(2) 0.6413(2)
C21_3 C 0.7873(2) 0.0454(3) 0.6608(2)
H11_3 H 0.831784 0.060842 0.638980
C22_3 C 0.7256(2) 0.0357(3) 0.6096(3)
H12_3 H 0.729413 0.045353 0.554052
N5_2 N 0.43483(17) 0.09168(18) 0.59772(19)
S1_3 S 0.37059(5) 0.39127(5) 0.53186(6)
S2_2 S 0.51069(5) 0.54112(5) 0.64475(6)
O4_2 O 0.54421(14) 0.96527(14) 0.62028(17)
N1_3 N 0.48326(18) 0.38046(18) 0.6266(2)
N3_3 N 0.39876(18) 0.55160(18) 0.5490(2)
N4_3 N 0.44388(16) 0.84025(18) 0.58913(18)
C1_3 C 0.3950(2) 0.7991(2) 0.5478(3)
H1_3 H 0.359731 0.826241 0.518407
C2_3 C 0.3858(2) 0.1300(2) 0.5542(2)
H2_3 H 0.351379 0.100768 0.525604
C3_3 C 0.4938(2) 0.8011(2) 0.6309(3)
H3_2 H 0.527879 0.829447 0.660858
C4_3 C 0.3941(2) 0.7185(2) 0.5463(3)
H4_3 H 0.358663 0.691607 0.516847
H5_2 H 0.708906 0.999914 0.830004
C8_3 C 0.4823(2) 0.1347(2) 0.6398(2)
H6_2 H 0.516392 0.108684 0.671926
C9_3 C 0.4836(2) 0.2147(2) 0.6382(2)
H7_2 H 0.517871 0.242417 0.668526
C11_3 C 0.4131(2) 0.4753(2) 0.5629(2)
C12_3 C 0.4349(2) 0.3396(2) 0.5877(2)
C13_3 C 0.4465(2) 0.5927(2) 0.5888(2)
C15_3 C 0.4972(2) 0.7206(2) 0.6318(3)
H8_2 H 0.533525 0.694933 0.661137
C16_3 C 0.4333(2) 0.2542(2) 0.5908(2)
C17_3 C 0.4699(2) 0.4568(2) 0.6120(2)
C18_2 C 0.6561(2) 0.9979(3) 0.7241(2)
H9_2 H 0.611999 0.980619 0.745525
C19_3 C 0.4463(2) 0.6779(2) 0.5889(2)
C20_3 C 0.3829(2) 0.2103(2) 0.5489(3)
H10_3 H 0.347345 0.234831 0.517445
O5_2 O 0.40641(14) 0.95567(17) 0.72776(17)
O7_2 O 0.33054(15) 0.96374(16) 0.62633(17)
C5_4 C 0.2807(2) 0.9684(2) 0.7571(2)
C6_4 C 0.2140(2) 0.9916(3) 0.7257(2)
C7_4 C 0.3434(2) 0.9613(2) 0.7014(2)
C10_4 C 0.09553(19) 0.9959(2) 0.9095(2)
C14_4 C 0.1617(2) 0.9874(2) 0.8587(2)
C21_4 C 0.2873(2) 0.9546(3) 0.8392(2)
H11_4 H 0.331784 0.939158 0.861020
C22_4 C 0.2256(2) 0.9643(3) 0.8904(3)
H12_4 H 0.229413 0.954647 0.945948
S1_4 S 0.87059(5) 0.60873(5) 0.96814(6)
N1_4 N 0.98326(18) 0.61954(18) 0.8734(2)
N2_2 N 0.93483(17) 0.90832(18) 0.90228(19)
N3_4 N 0.89876(18) 0.44840(18) 0.9510(2)
N4_4 N 0.94388(16) 0.15975(18) 0.91087(18)
C1_4 C 0.8950(2) 0.2009(2) 0.9522(3)
H1_4 H 0.859731 0.173759 0.981593
C2_4 C 0.8858(2) 0.8700(2) 0.9458(2)
H2_4 H 0.851379 0.899232 0.974396
C3_4 C 0.9938(2) 0.1989(2) 0.8691(3)
C4_4 C 0.8941(2) 0.2815(2) 0.9537(3)
H4_4 H 0.858663 0.308393 0.983153
C8_4 C 0.9823(2) 0.8653(2) 0.8602(2)
C9_4 C 0.9836(2) 0.7853(2) 0.8618(2)
C11_4 C 0.9131(2) 0.5247(2) 0.9371(2)
C12_4 C 0.9349(2) 0.6604(2) 0.9123(2)
C13_4 C 0.9465(2) 0.4073(2) 0.9112(2)
C15_4 C 0.9972(2) 0.2794(2) 0.8682(3)
C16_4 C 0.9333(2) 0.7458(2) 0.9092(2)
C17_4 C 0.9699(2) 0.5432(2) 0.8880(2)
C19_4 C 0.9463(2) 0.3221(2) 0.9111(2)
C20_4 C 0.8829(2) 0.7897(2) 0.9511(3)
H10_4 H 0.847345 0.765169 0.982555
S2_3 S 0.01069(5) 0.04112(5) 0.35525(6)
O1_3 O 0.40641(14) 0.54433(17) 0.22776(17)
O2_3 O 0.09412(14) 0.53762(15) 0.47636(16)
O3_3 O 0.33054(15) 0.53626(16) 0.12633(17)
O4_3 O 0.04421(14) 0.46527(14) 0.37972(17)
H3_3 H 0.027879 0.329447 0.339142
C5_5 C 0.2807(2) 0.5316(2) 0.2571(2)
C6_5 C 0.2140(2) 0.5084(3) 0.2257(2)
H5_3 H 0.208906 0.499914 0.169996
C7_5 C 0.3434(2) 0.5387(2) 0.2014(2)
C10_5 C 0.09553(19) 0.5041(2) 0.4095(2)
C14_5 C 0.1617(2) 0.5126(2) 0.3587(2)
H8_3 H 0.033525 0.194933 0.338863
C18_3 C 0.1561(2) 0.4979(3) 0.2759(2)
H9_3 H 0.111999 0.480619 0.254475
C21_5 C 0.2873(2) 0.5454(3) 0.3392(2)
H11_5 H 0.331784 0.560842 0.361020
C22_5 C 0.2256(2) 0.5357(3) 0.3904(3)
H12_5 H 0.229413 0.545353 0.445948
Cu3_2 Cu 0.43917(2) 0.53523(3) 0.09317(3)
Cu4_3 Cu 0.06083(2) 0.53523(3) 0.59317(3)
Cu1 Cu 0.93917(2) 0.46477(3) 0.40683(3)
N3_5 N 0.89876(18) 0.05160(18) 0.4510(2)
N4_5 N 0.94388(16) 0.34025(18) 0.41087(18)
C1_5 C 0.8950(2) 0.2991(2) 0.4522(3)
H1_5 H 0.859731 0.326241 0.481593
C3_5 C 0.9938(2) 0.3011(2) 0.3691(3)
C4_5 C 0.8941(2) 0.2185(2) 0.4537(3)
H4_5 H 0.858663 0.191607 0.483153
C13_5 C 0.9465(2) 0.0927(2) 0.4112(2)
C15_5 C 0.9972(2) 0.2206(2) 0.3682(3)
C19_5 C 0.9463(2) 0.1779(2) 0.4111(2)
O5_3 O 0.90641(14) 0.45567(17) 0.27224(17)
O6_3 O 0.90588(14) 0.46238(15) 0.52364(16)
O7_3 O 0.83054(15) 0.46374(16) 0.37367(17)
N5_3 N 0.93483(17) 0.59168(18) 0.40228(19)
S1_5 S 0.87059(5) 0.89127(5) 0.46814(6)
N1_5 N 0.98326(18) 0.88046(18) 0.3734(2)
C2_5 C 0.8858(2) 0.6300(2) 0.4458(2)
H2_5 H 0.851379 0.600768 0.474396
C8_5 C 0.9823(2) 0.6347(2) 0.3602(2)
C9_5 C 0.9836(2) 0.7147(2) 0.3618(2)
C11_5 C 0.9131(2) 0.9753(2) 0.4371(2)
C12_5 C 0.9349(2) 0.8396(2) 0.4123(2)
C16_5 C 0.9333(2) 0.7542(2) 0.4092(2)
C17_5 C 0.9699(2) 0.9568(2) 0.3880(2)
C20_5 C 0.8829(2) 0.7103(2) 0.4511(3)
H10_5 H 0.847345 0.734831 0.482555
S1_6 S 0.37059(5) 0.10873(5) 0.03186(6)
N1_6 N 0.48326(18) 0.11954(18) 0.1266(2)
N2_3 N 0.43483(17) 0.40832(18) 0.09772(19)
C2_6 C 0.3858(2) 0.3700(2) 0.0542(2)
H2_6 H 0.351379 0.399232 0.025604
C8_6 C 0.4823(2) 0.3653(2) 0.1398(2)
H6_3 H 0.516392 0.391316 0.171926
C9_6 C 0.4836(2) 0.2853(2) 0.1382(2)
H7_3 H 0.517871 0.257583 0.168526
C11_6 C 0.4131(2) 0.0247(2) 0.0629(2)
C12_6 C 0.4349(2) 0.1604(2) 0.0877(2)
C16_6 C 0.4333(2) 0.2458(2) 0.0908(2)
C17_6 C 0.4699(2) 0.0432(2) 0.1120(2)
C20_6 C 0.3829(2) 0.2897(2) 0.0489(3)
H10_6 H 0.347345 0.265169 0.017445
S2_4 S 0.51069(5) 0.95888(5) 0.14475(6)
O2_4 O 0.59412(14) 0.46238(15) 0.02364(16)
O4_4 O 0.54421(14) 0.53473(14) 0.12028(17)
N3_6 N 0.39876(18) 0.94840(18) 0.0490(2)
N4_6 N 0.44388(16) 0.65975(18) 0.08913(18)
C1_6 C 0.3950(2) 0.7009(2) 0.0478(3)
H1_6 H 0.359731 0.673759 0.018407
C3_6 C 0.4938(2) 0.6989(2) 0.1309(3)
H3_4 H 0.527879 0.670553 0.160858
C4_6 C 0.3941(2) 0.7815(2) 0.0463(3)
H4_6 H 0.358663 0.808393 0.016847
C5_6 C 0.7807(2) 0.4684(2) 0.2429(2)
C6_6 C 0.7140(2) 0.4916(3) 0.2743(2)
H5_4 H 0.708906 0.500086 0.330004
C7_6 C 0.8434(2) 0.4613(2) 0.2986(2)
C10_6 C 0.59553(19) 0.4959(2) 0.0905(2)
C13_6 C 0.4465(2) 0.9073(2) 0.0888(2)
C14_6 C 0.6617(2) 0.4874(2) 0.1413(2)
C15_6 C 0.4972(2) 0.7794(2) 0.1318(3)
H8_4 H 0.533525 0.805067 0.161137
C18_4 C 0.6561(2) 0.5021(3) 0.2241(2)
H9_4 H 0.611999 0.519381 0.245525
C19_6 C 0.4463(2) 0.8221(2) 0.0889(2)
C21_6 C 0.7873(2) 0.4546(3) 0.1608(2)
H11_6 H 0.831784 0.439158 0.138980
C22_6 C 0.7256(2) 0.4643(3) 0.1096(3)
H12_6 H 0.729413 0.454647 0.054052
Cu4_4 Cu 0.56083(2) 0.46477(3) 0.90683(3)
O6_4 O 0.40588(14) 0.53762(15) 0.97636(16)
S1_7 S 0.12941(5) 0.10873(5) 0.53186(6)
N1_7 N 0.01674(18) 0.11954(18) 0.6266(2)
N2_4 N 0.06517(17) 0.40832(18) 0.59772(19)
C2_7 C 0.1142(2) 0.3700(2) 0.5542(2)
H2_7 H 0.148621 0.399232 0.525604
C8_7 C 0.0177(2) 0.3653(2) 0.6398(2)
C9_7 C 0.0164(2) 0.2853(2) 0.6382(2)
C11_7 C 0.0869(2) 0.0247(2) 0.5629(2)
C12_7 C 0.0651(2) 0.1604(2) 0.5877(2)
C16_7 C 0.0667(2) 0.2458(2) 0.5908(2)
C17_7 C 0.0301(2) 0.0432(2) 0.6120(2)
C20_7 C 0.1171(2) 0.2897(2) 0.5489(3)
H10_7 H 0.152655 0.265169 0.517445
N3_7 N 0.10124(18) 0.94840(18) 0.5490(2)
N4_7 N 0.05612(16) 0.65975(18) 0.58913(18)
C1_7 C 0.1050(2) 0.7009(2) 0.5478(3)
H1_7 H 0.140269 0.673759 0.518407
C3_7 C 0.0062(2) 0.6989(2) 0.6309(3)
C4_7 C 0.1059(2) 0.7815(2) 0.5463(3)
H4_7 H 0.141337 0.808393 0.516847
C13_7 C 0.0535(2) 0.9073(2) 0.5888(2)
C15_7 C 0.0028(2) 0.7794(2) 0.6318(3)
C19_7 C 0.0537(2) 0.8221(2) 0.5889(2)
O5_4 O 0.09359(14) 0.54433(17) 0.72776(17)
O7_4 O 0.16946(15) 0.53626(16) 0.62633(17)
S2_5 S 0.98931(5) 0.95888(5) 0.64475(6)
O1_4 O 0.59359(14) 0.45567(17) 0.77224(17)
O3_4 O 0.66946(15) 0.46374(16) 0.87367(17)
O4_5 O 0.95579(14) 0.53473(14) 0.62028(17)
H3_5 H 0.972121 0.670553 0.660858
C5_7 C 0.7193(2) 0.4684(2) 0.7429(2)
C6_7 C 0.7860(2) 0.4916(3) 0.7743(2)
H5_5 H 0.791094 0.500086 0.830004
C7_7 C 0.6566(2) 0.4613(2) 0.7986(2)
C10_7 C 0.90447(19) 0.4959(2) 0.5905(2)
C14_7 C 0.8383(2) 0.4874(2) 0.6413(2)
H8_5 H 0.966475 0.805067 0.661137
C18_5 C 0.8439(2) 0.5021(3) 0.7241(2)
H9_5 H 0.888001 0.519381 0.745525
C21_7 C 0.7127(2) 0.4546(3) 0.6608(2)
H11_7 H 0.668216 0.439158 0.638980
C22_7 C 0.7744(2) 0.4643(3) 0.6096(3)
H12_7 H 0.770587 0.454647 0.554052
S2_6 S 0.48931(5) 0.04112(5) 0.85525(6)
O4_6 O 0.45579(14) 0.46527(14) 0.87972(17)
N3_8 N 0.60124(18) 0.05160(18) 0.9510(2)
N4_8 N 0.55612(16) 0.34025(18) 0.91087(18)
C1_8 C 0.6050(2) 0.2991(2) 0.9522(3)
H1_8 H 0.640269 0.326241 0.981593
C3_8 C 0.5062(2) 0.3011(2) 0.8691(3)
H3_6 H 0.472121 0.329447 0.839142
C4_8 C 0.6059(2) 0.2185(2) 0.9537(3)
H4_8 H 0.641337 0.191607 0.983153
C5_8 C 0.2193(2) 0.5316(2) 0.7571(2)
C6_8 C 0.2860(2) 0.5084(3) 0.7257(2)
H5_6 H 0.291094 0.499914 0.669996
C7_8 C 0.1566(2) 0.5387(2) 0.7014(2)
C10_8 C 0.40447(19) 0.5041(2) 0.9095(2)
C13_8 C 0.5535(2) 0.0927(2) 0.9112(2)
C14_8 C 0.3383(2) 0.5126(2) 0.8587(2)
C15_8 C 0.5028(2) 0.2206(2) 0.8682(3)
H8_6 H 0.466475 0.194933 0.838863
C18_6 C 0.3439(2) 0.4979(3) 0.7759(2)
H9_6 H 0.388001 0.480619 0.754475
C19_8 C 0.5537(2) 0.1779(2) 0.9111(2)
C21_8 C 0.2127(2) 0.5454(3) 0.8392(2)
H11_8 H 0.168216 0.560842 0.861020
C22_8 C 0.2744(2) 0.5357(3) 0.8904(3)
H12_8 H 0.270587 0.545353 0.945948
N5_4 N 0.56517(17) 0.59168(18) 0.90228(19)
S1_8 S 0.62941(5) 0.89127(5) 0.96814(6)
N1_8 N 0.51674(18) 0.88046(18) 0.8734(2)
C2_8 C 0.6142(2) 0.6300(2) 0.9458(2)
H2_8 H 0.648621 0.600768 0.974396
C8_8 C 0.5177(2) 0.6347(2) 0.8602(2)
H6_4 H 0.483608 0.608684 0.828074
C9_8 C 0.5164(2) 0.7147(2) 0.8618(2)
H7_4 H 0.482129 0.742417 0.831474
C11_8 C 0.5869(2) 0.9753(2) 0.9371(2)
C12_8 C 0.5651(2) 0.8396(2) 0.9123(2)
C16_8 C 0.5667(2) 0.7542(2) 0.9092(2)
C17_8 C 0.5301(2) 0.9568(2) 0.8880(2)
C20_8 C 0.6171(2) 0.7103(2) 0.9511(3)
H10_8 H 0.652655 0.734831 0.982555
H6_5 H 0.016392 0.608684 0.328074
H7_5 H 0.017871 0.742417 0.331474
S2_7 S 0.98931(5) 0.54112(5) 0.14475(6)
O4_7 O 0.95579(14) 0.96527(14) 0.12028(17)
H3_7 H 0.972121 0.829447 0.160858
H5_7 H 0.791094 0.999914 0.330004
H6_6 H 0.983608 0.108684 0.171926
H7_6 H 0.982129 0.242417 0.168526
H8_7 H 0.966475 0.694933 0.161137
C18_7 C 0.8439(2) 0.9979(3) 0.2241(2)
H9_7 H 0.888001 0.980619 0.245525
H6_7 H 0.983608 0.391316 0.671926
H7_7 H 0.982129 0.257583 0.668526
S2_8 S 0.01069(5) 0.45888(5) 0.85525(6)
O4_8 O 0.04421(14) 0.03473(14) 0.87972(17)
H3_8 H 0.027879 0.170553 0.839142
H5_8 H 0.208906 0.000086 0.669996
H6_8 H 0.016392 0.891316 0.828074
H7_8 H 0.017871 0.757583 0.831474
H8_8 H 0.033525 0.305067 0.838863
C18_8 C 0.1561(2) 0.0021(3) 0.7759(2)
H9_8 H 0.111999 0.019381 0.754475
loop_
_geom_bond_atom_site_label_1
_geom_bond_atom_site_label_2
_geom_bond_site_symmetry_1
_geom_bond_site_symmetry_2
Cu2 O4 1_555 1_555
S1 C11 1_555 1_555
S2 C13 1_555 1_555
N1 C12 1_555 1_555
N2 C2 1_555 1_555
N3 C11 1_555 1_555
N4 Cu2 1_555 1_555
C1 N4 1_555 1_555
H1 C1 1_555 1_555
C2 H2 1_555 1_555
C3 N4 1_555 1_555
H3 C3 1_555 1_555
C4 C1 1_555 1_555
H4 C4 1_555 1_555
C8 N2 1_555 1_555
H6 C8 1_555 1_555
C9 C8 1_555 1_555
H7 C9 1_555 1_555
C11 C17 1_555 1_555
C12 S1 1_555 1_555
C13 N3 1_555 1_555
C15 C3 1_555 1_555
H8 C15 1_555 1_555
C16 C9 1_555 1_555
C17 S2 1_555 1_555
H9 C18 1_555 1_555
C19 C4 1_555 1_555
C20 C2 1_555 1_555
H10 C20 1_555 1_555
O5 Cu2 1_555 1_555
O6 Cu2 1_555 1_555
O7 Cu2 1_555 1_555
N1 C17 1_555 1_555
C12 C16 1_555 1_555
C13 C19 1_555 1_555
C15 C19 1_555 1_555
C16 C20 1_555 1_555
O1 C7 1_555 1_555
O2 C10 1_555 1_555
O3 C7 1_555 1_555
C5 C6 1_555 1_555
C7 C5 1_555 1_555
C10 C14 1_555 1_555
C21 C5 1_555 1_555
H11 C21 1_555 1_555
C22 C14 1_555 1_555
H12 C22 1_555 1_555
Cu3 O1 1_555 1_555
Cu4 O2 1_555 1_555
O3 Cu3 1_555 1_555
C21 C22 1_555 1_555
S1_2 C11_2 1_555 1_555
N1_2 C12_2 1_555 1_555
N5 C2_2 1_555 1_555
N3_2 C11_2 1_555 1_555
N4_2 Cu3 1_555 1_555
C1_2 N4_2 1_555 1_555
H1_2 C1_2 1_555 1_555
C2_2 H2_2 1_555 1_555
C3_2 N4_2 1_555 1_555
C4_2 C1_2 1_555 1_555
H4_2 C4_2 1_555 1_555
C8_2 N5 1_555 1_555
C9_2 C8_2 1_555 1_555
C11_2 C17_2 1_555 1_555
C12_2 S1_2 1_555 1_555
C13_2 N3_2 1_555 1_555
C15_2 C3_2 1_555 1_555
C16_2 C9_2 1_555 1_555
C19_2 C4_2 1_555 1_555
C20_2 C2_2 1_555 1_555
H10_2 C20_2 1_555 1_555
N1_2 C17_2 1_555 1_555
C12_2 C16_2 1_555 1_555
C13_2 C19_2 1_555 1_555
C15_2 C19_2 1_555 1_555
C16_2 C20_2 1_555 1_555
O5 C7_2 1_555 1_555
O2_2 C10_2 1_555 1_555
O7 C7_2 1_555 1_555
C5_2 C6_2 1_555 1_555
C7_2 C5_2 1_555 1_555
C10_2 C14_2 1_555 1_555
C21_2 C5_2 1_555 1_555
H11_2 C21_2 1_555 1_555
C22_2 C14_2 1_555 1_555
H12_2 C22_2 1_555 1_555
C21_2 C22_2 1_555 1_555
O1_2 C7_3 1_555 1_555
O6 C10_3 1_555 1_555
O3_2 C7_3 1_555 1_555
C5_3 C6_3 1_555 1_555
C7_3 C5_3 1_555 1_555
C10_3 C14_3 1_555 1_555
C21_3 C5_3 1_555 1_555
H11_3 C21_3 1_555 1_555
C22_3 C14_3 1_555 1_555
H12_3 C22_3 1_555 1_555
Cu4_2 O1_2 1_555 1_555
O3_2 Cu4_2 1_555 1_555
C21_3 C22_3 1_555 1_555
Cu4 O4_2 1_555 1_555
S1_3 C11_3 1_555 1_555
S2_2 C13_3 1_555 1_555
N1_3 C12_3 1_555 1_555
N5_2 C2_3 1_555 1_555
N3_3 C11_3 1_555 1_555
N4_3 Cu4 1_555 1_555
C1_3 N4_3 1_555 1_555
H1_3 C1_3 1_555 1_555
C2_3 H2_3 1_555 1_555
C3_3 N4_3 1_555 1_555
H3_2 C3_3 1_555 1_555
C4_3 C1_3 1_555 1_555
H4_3 C4_3 1_555 1_555
C8_3 N5_2 1_555 1_555
H6_2 C8_3 1_555 1_555
C9_3 C8_3 1_555 1_555
H7_2 C9_3 1_555 1_555
C11_3 C17_3 1_555 1_555
C12_3 S1_3 1_555 1_555
C13_3 N3_3 1_555 1_555
C15_3 C3_3 1_555 1_555
H8_2 C15_3 1_555 1_555
C16_3 C9_3 1_555 1_555
C17_3 S2_2 1_555 1_555
H9_2 C18_2 1_555 1_555
C19_3 C4_3 1_555 1_555
C20_3 C2_3 1_555 1_555
H10_3 C20_3 1_555 1_555
O5_2 Cu4 1_555 1_555
O7_2 Cu4 1_555 1_555
N1_3 C17_3 1_555 1_555
C12_3 C16_3 1_555 1_555
C13_3 C19_3 1_555 1_555
C15_3 C19_3 1_555 1_555
C16_3 C20_3 1_555 1_555
O5_2 C7_4 1_555 1_555
O6_2 C10_4 1_555 1_555
O7_2 C7_4 1_555 1_555
C5_4 C6_4 1_555 1_555
C7_4 C5_4 1_555 1_555
C10_4 C14_4 1_555 1_555
C21_4 C5_4 1_555 1_555
H11_4 C21_4 1_555 1_555
C22_4 C14_4 1_555 1_555
H12_4 C22_4 1_555 1_555
C21_4 C22_4 1_555 1_555
S1_4 C11_4 1_555 1_555
N1_4 C12_4 1_555 1_555
N2_2 C2_4 1_555 1_555
N3_4 C11_4 1_555 1_555
N4_4 Cu4_2 1_555 1_555
C1_4 N4_4 1_555 1_555
H1_4 C1_4 1_555 1_555
C2_4 H2_4 1_555 1_555
C3_4 N4_4 1_555 1_555
C4_4 C1_4 1_555 1_555
H4_4 C4_4 1_555 1_555
C8_4 N2_2 1_555 1_555
C9_4 C8_4 1_555 1_555
C11_4 C17_4 1_555 1_555
C12_4 S1_4 1_555 1_555
C13_4 N3_4 1_555 1_555
C15_4 C3_4 1_555 1_555
C16_4 C9_4 1_555 1_555
C19_4 C4_4 1_555 1_555
C20_4 C2_4 1_555 1_555
H10_4 C20_4 1_555 1_555
N1_4 C17_4 1_555 1_555
C12_4 C16_4 1_555 1_555
C13_4 C19_4 1_555 1_555
C15_4 C19_4 1_555 1_555
C16_4 C20_4 1_555 1_555
O1_3 C7_5 1_555 1_555
O2_3 C10_5 1_555 1_555
O3_3 C7_5 1_555 1_555
O4_3 C10_5 1_555 1_555
C5_5 C6_5 1_555 1_555
C6_5 H5_3 1_555 1_555
C7_5 C5_5 1_555 1_555
C10_5 C14_5 1_555 1_555
C14_5 C18_3 1_555 1_555
C18_3 C6_5 1_555 1_555
H9_3 C18_3 1_555 1_555
C21_5 C5_5 1_555 1_555
H11_5 C21_5 1_555 1_555
C22_5 C14_5 1_555 1_555
H12_5 C22_5 1_555 1_555
Cu3_2 O1_3 1_555 1_555
Cu4_3 O2_3 1_555 1_555
O3_3 Cu3_2 1_555 1_555
C21_5 C22_5 1_555 1_555
N4_5 Cu1 1_555 1_555
C1_5 N4_5 1_555 1_555
H1_5 C1_5 1_555 1_555
C3_5 N4_5 1_555 1_555
C4_5 C1_5 1_555 1_555
H4_5 C4_5 1_555 1_555
C13_5 N3_5 1_555 1_555
C15_5 C3_5 1_555 1_555
C19_5 C4_5 1_555 1_555
O5_3 Cu1 1_555 1_555
O6_3 Cu1 1_555 1_555
O7_3 Cu1 1_555 1_555
N5_3 Cu1 1_555 1_555
C13_5 C19_5 1_555 1_555
C15_5 C19_5 1_555 1_555
S1_5 C11_5 1_555 1_555
N1_5 C12_5 1_555 1_555
N5_3 C2_5 1_555 1_555
C2_5 H2_5 1_555 1_555
C8_5 N5_3 1_555 1_555
C9_5 C8_5 1_555 1_555
C11_5 C17_5 1_555 1_555
C12_5 S1_5 1_555 1_555
C16_5 C9_5 1_555 1_555
C20_5 C2_5 1_555 1_555
H10_5 C20_5 1_555 1_555
N1_5 C17_5 1_555 1_555
C12_5 C16_5 1_555 1_555
C16_5 C20_5 1_555 1_555
S1_6 C11_6 1_555 1_555
N1_6 C12_6 1_555 1_555
N2_3 C2_6 1_555 1_555
C2_6 H2_6 1_555 1_555
C8_6 N2_3 1_555 1_555
H6_3 C8_6 1_555 1_555
C9_6 C8_6 1_555 1_555
H7_3 C9_6 1_555 1_555
C11_6 C17_6 1_555 1_555
C12_6 S1_6 1_555 1_555
C16_6 C9_6 1_555 1_555
C20_6 C2_6 1_555 1_555
H10_6 C20_6 1_555 1_555
Cu3_2 N2_3 1_555 1_555
N1_6 C17_6 1_555 1_555
C12_6 C16_6 1_555 1_555
C16_6 C20_6 1_555 1_555
Cu3_2 O4_4 1_555 1_555
S2_4 C13_6 1_555 1_555
O5_3 C7_6 1_555 1_555
O2_4 C10_6 1_555 1_555
O7_3 C7_6 1_555 1_555
O4_4 C10_6 1_555 1_555
N4_6 Cu3_2 1_555 1_555
C1_6 N4_6 1_555 1_555
H1_6 C1_6 1_555 1_555
C3_6 N4_6 1_555 1_555
H3_4 C3_6 1_555 1_555
C4_6 C1_6 1_555 1_555
H4_6 C4_6 1_555 1_555
C5_6 C6_6 1_555 1_555
C6_6 H5_4 1_555 1_555
C7_6 C5_6 1_555 1_555
C10_6 C14_6 1_555 1_555
C13_6 N3_6 1_555 1_555
C14_6 C18_4 1_555 1_555
C15_6 C3_6 1_555 1_555
H8_4 C15_6 1_555 1_555
C18_4 C6_6 1_555 1_555
H9_4 C18_4 1_555 1_555
C19_6 C4_6 1_555 1_555
C21_6 C5_6 1_555 1_555
H11_6 C21_6 1_555 1_555
C22_6 C14_6 1_555 1_555
H12_6 C22_6 1_555 1_555
C13_6 C19_6 1_555 1_555
C15_6 C19_6 1_555 1_555
C21_6 C22_6 1_555 1_555
S1_7 C11_7 1_555 1_555
N1_7 C12_7 1_555 1_555
N2_4 C2_7 1_555 1_555
C2_7 H2_7 1_555 1_555
C8_7 N2_4 1_555 1_555
C9_7 C8_7 1_555 1_555
C11_7 C17_7 1_555 1_555
C12_7 S1_7 1_555 1_555
C16_7 C9_7 1_555 1_555
C20_7 C2_7 1_555 1_555
H10_7 C20_7 1_555 1_555
Cu4_3 N2_4 1_555 1_555
N1_7 C17_7 1_555 1_555
C12_7 C16_7 1_555 1_555
C16_7 C20_7 1_555 1_555
N4_7 Cu4_3 1_555 1_555
C1_7 N4_7 1_555 1_555
H1_7 C1_7 1_555 1_555
C3_7 N4_7 1_555 1_555
C4_7 C1_7 1_555 1_555
H4_7 C4_7 1_555 1_555
C13_7 N3_7 1_555 1_555
C15_7 C3_7 1_555 1_555
C19_7 C4_7 1_555 1_555
O5_4 Cu4_3 1_555 1_555
O7_4 Cu4_3 1_555 1_555
C13_7 C19_7 1_555 1_555
C15_7 C19_7 1_555 1_555
O1_4 C7_7 1_555 1_555
O6_3 C10_7 1_555 1_555
O3_4 C7_7 1_555 1_555
O4_5 C10_7 1_555 1_555
C5_7 C6_7 1_555 1_555
C6_7 H5_5 1_555 1_555
C7_7 C5_7 1_555 1_555
C10_7 C14_7 1_555 1_555
C14_7 C18_5 1_555 1_555
C18_5 C6_7 1_555 1_555
H9_5 C18_5 1_555 1_555
C21_7 C5_7 1_555 1_555
H11_7 C21_7 1_555 1_555
C22_7 C14_7 1_555 1_555
H12_7 C22_7 1_555 1_555
Cu4_4 O1_4 1_555 1_555
O3_4 Cu4_4 1_555 1_555
C21_7 C22_7 1_555 1_555
Cu4_4 O4_6 1_555 1_555
S2_6 C13_8 1_555 1_555
O5_4 C7_8 1_555 1_555
O6_4 C10_8 1_555 1_555
O7_4 C7_8 1_555 1_555
O4_6 C10_8 1_555 1_555
N4_8 Cu4_4 1_555 1_555
C1_8 N4_8 1_555 1_555
H1_8 C1_8 1_555 1_555
C3_8 N4_8 1_555 1_555
H3_6 C3_8 1_555 1_555
C4_8 C1_8 1_555 1_555
H4_8 C4_8 1_555 1_555
C5_8 C6_8 1_555 1_555
C6_8 H5_6 1_555 1_555
C7_8 C5_8 1_555 1_555
C10_8 C14_8 1_555 1_555
C13_8 N3_8 1_555 1_555
C14_8 C18_6 1_555 1_555
C15_8 C3_8 1_555 1_555
H8_6 C15_8 1_555 1_555
C18_6 C6_8 1_555 1_555
H9_6 C18_6 1_555 1_555
C19_8 C4_8 1_555 1_555
C21_8 C5_8 1_555 1_555
H11_8 C21_8 1_555 1_555
C22_8 C14_8 1_555 1_555
H12_8 C22_8 1_555 1_555
N5_4 Cu4_4 1_555 1_555
C13_8 C19_8 1_555 1_555
C15_8 C19_8 1_555 1_555
C21_8 C22_8 1_555 1_555
S1_8 C11_8 1_555 1_555
N1_8 C12_8 1_555 1_555
N5_4 C2_8 1_555 1_555
C2_8 H2_8 1_555 1_555
C8_8 N5_4 1_555 1_555
H6_4 C8_8 1_555 1_555
C9_8 C8_8 1_555 1_555
H7_4 C9_8 1_555 1_555
C11_8 C17_8 1_555 1_555
C12_8 S1_8 1_555 1_555
C16_8 C9_8 1_555 1_555
C20_8 C2_8 1_555 1_555
H10_8 C20_8 1_555 1_555
N1_8 C17_8 1_555 1_555
C12_8 C16_8 1_555 1_555
C16_8 C20_8 1_555 1_555
H9_7 C18_7 1_555 1_555
H9_8 C18_8 1_555 1_555

#END
