
###############################################################################
#
# This file contains modified crystal structure data generated from the
# MOF subset of the Cambridge Structural Database (CSD) v542 
# hosted by the Cambridge Crystallographic Data Centre (CCDC).
#
# This work is licensed under the Creative Commons
# Attribution-NonCommercial-ShareAlike 4.0 International License.
# To view a copy of this license, visit
# http://creativecommons.org/licenses/by-nc-sa/4.0/
# or send a letter to
# Creative Commons, PO Box 1866, Mountain View, CA 94042, USA.
#
# CIF created using the CSD Python API on 22 February 2021
# The structure has been converted into the P1 space group
# The structure has a 3D framework
# The original CSD entry XUNBEQ is in the orthorhombic crystal system
# The framework has been calculated to contain at least 10.0% void space
# The void calculation uses a probe of radius 1.32A, grid spacing 0.4
#
###############################################################################

data_XUNBEQ
_chemical_formula_moiety         '(C352 H192 Cu16 N64 O64 S32)n'
_symmetry_cell_setting           triclinic
_symmetry_space_group_name_H-M   'P 1'
_symmetry_Int_Tables_number      1
_space_group_name_Hall           'P 1'
loop_
_symmetry_equiv_pos_site_id
_symmetry_equiv_pos_as_xyz
1 x,y,z
_cell_length_a                   35.1820(6)
_cell_length_b                   17.2173(3)
_cell_length_c                   17.1182(3)
_cell_angle_alpha                90
_cell_angle_beta                 90
_cell_angle_gamma                90
_cell_volume                     10369.2
loop_
_atom_site_label
_atom_site_type_symbol
_atom_site_fract_x
_atom_site_fract_y
_atom_site_fract_z
N2 N 0.34086(5) 0.18801(12) 0.54708(15)
N4 N 0.40580(5) 0.25701(11) 0.37202(14)
C26 C 0.34017(7) 0.02631(15) 0.53997(15)
C27 C 0.31304(8) 0.06940(16) 0.50031(16)
H13 H 0.294236 0.045115 0.470952
C28 C 0.31469(8) 0.14950(16) 0.50561(17)
H14 H 0.296537 0.178304 0.478771
C29 C 0.36704(7) 0.14559(15) 0.58463(16)
H15 H 0.385687 0.171419 0.613048
C30 C 0.36769(7) 0.06525(15) 0.58323(17)
H16 H 0.386151 0.037834 0.610651
C39 C 0.40696(7) 0.00908(14) 0.37279(18)
C40 C 0.40743(7) 0.09446(15) 0.37243(18)
C41 C 0.38460(8) 0.13508(15) 0.32020(16)
H21 H 0.369509 0.108664 0.284371
C42 C 0.38467(7) 0.21525(16) 0.32237(16)
H22 H 0.369155 0.241738 0.287360
C43 C 0.42835(7) 0.21744(15) 0.42004(16)
H23 H 0.444079 0.245342 0.453498
C44 C 0.42979(8) 0.13696(16) 0.42314(16)
H24 H 0.445567 0.112031 0.458795
Cu3 Cu 0.33751(2) 0.31498(2) 0.55382(2)
Cu5 Cu 0.40277(2) 0.38386(2) 0.37748(2)
S1 S 0.37433(2) 0.73751(4) 0.60361(5)
S2 S 0.30740(2) 0.88980(4) 0.47987(4)
S3 S 0.37178(2) 0.80734(4) 0.30500(4)
S4 S 0.43521(2) 0.95709(4) 0.43933(5)
O1 O 0.39328(4) 0.31408(10) 0.58043(10)
O2 O 0.42202(5) 0.38673(10) 0.48913(10)
O3 O 0.54213(5) 0.38573(11) 0.83562(11)
O4 O 0.58223(5) 0.38637(12) 0.73720(12)
O5 O 0.32077(5) 0.31158(10) 0.44106(10)
O6 O 0.34742(4) 0.37918(10) 0.34435(10)
O7 O 0.17652(5) 0.19328(11) 0.18573(11)
O8 O 0.21877(5) 0.20348(11) 0.09157(10)
N1 N 0.33587(5) 0.43937(11) 0.55558(14)
N3 N 0.39856(5) 0.50793(11) 0.38061(14)
N5 N 0.31855(6) 0.72856(13) 0.50202(13)
N6 N 0.36308(6) 0.89851(13) 0.58106(14)
N7 N 0.42154(7) 0.79612(13) 0.41774(13)
N8 N 0.38559(6) 0.96798(13) 0.32604(14)
C1 C 0.42064(6) 0.35389(13) 0.55453(14)
C2 C 0.45447(6) 0.36243(14) 0.60738(13)
C3 C 0.45103(7) 0.34365(19) 0.68569(15)
H1 H 0.428093 0.324442 0.704583
C4 C 0.48132(7) 0.3532(2) 0.73596(15)
H2 H 0.478394 0.342472 0.788869
C5 C 0.51605(7) 0.37870(15) 0.70794(15)
C6 C 0.51961(7) 0.39695(17) 0.62958(15)
H3 H 0.542932 0.413765 0.610410
C7 C 0.48885(7) 0.39052(16) 0.57911(15)
H4 H 0.491244 0.404864 0.526963
C8 C 0.54919(7) 0.38431(15) 0.76267(16)
C9 C 0.32183(6) 0.33608(13) 0.37304(15)
C10 C 0.29092(7) 0.30911(14) 0.31958(14)
C11 C 0.29517(7) 0.31665(16) 0.23883(14)
H5 H 0.315811 0.343877 0.218768
C12 C 0.26891(7) 0.28391(16) 0.18840(14)
H6 H 0.272274 0.288081 0.134680
C13 C 0.23751(7) 0.24481(16) 0.21810(15)
C14 C 0.23226(7) 0.23984(15) 0.29918(15)
H7 H 0.210755 0.215665 0.319324
C15 C 0.25901(6) 0.27082(15) 0.34878(15)
H8 H 0.255772 0.266170 0.402492
C16 C 0.20912(7) 0.21060(15) 0.16244(15)
C17 C 0.31409(7) 0.48068(15) 0.50605(14)
H9 H 0.297533 0.453878 0.473389
C18 C 0.31501(7) 0.56041(15) 0.50111(14)
H10 H 0.299455 0.586545 0.465915
C19 C 0.33952(6) 0.60111(14) 0.54954(16)
C20 C 0.36158(7) 0.55915(15) 0.60332(15)
H11 H 0.377790 0.584598 0.637772
C21 C 0.35864(7) 0.47942(14) 0.60378(14)
H12 H 0.373254 0.451800 0.639516
C22 C 0.34136(7) 0.68628(15) 0.54608(17)
C23 C 0.32668(8) 0.80464(15) 0.51529(16)
C24 C 0.35521(7) 0.82236(14) 0.56741(16)
C25 C 0.33998(7) 0.94059(15) 0.53869(16)
C31 C 0.37646(7) 0.54636(15) 0.33055(15)
H17 H 0.361018 0.517684 0.297186
C32 C 0.37520(7) 0.62657(15) 0.32544(15)
H18 H 0.359237 0.650985 0.289773
C33 C 0.39834(7) 0.66973(14) 0.37480(17)
C34 C 0.42115(8) 0.63061(15) 0.42801(16)
H19 H 0.436822 0.657859 0.462108
C35 C 0.42011(8) 0.55022(15) 0.42933(16)
H20 H 0.435074 0.524287 0.465736
C36 C 0.39957(7) 0.75538(14) 0.37195(17)
C37 C 0.39110(8) 0.89158(15) 0.34295(17)
C38 C 0.41632(9) 0.87290(15) 0.40076(16)
Cu4 Cu 0.16249(2) 0.18502(2) 0.05382(2)
Cu6 Cu 0.59723(2) 0.38386(2) 0.87748(2)
O9 O 0.45787(5) 0.38573(11) 0.33562(11)
O10 O 0.41777(5) 0.38637(12) 0.23720(12)
O11 O 0.32348(5) 0.30672(11) 0.68573(11)
O12 O 0.28123(5) 0.29652(11) 0.59157(10)
O3_2 O 0.04213(5) 0.11427(11) 0.83562(11)
O4_2 O 0.08223(5) 0.11363(12) 0.73720(12)
C5_2 C 0.01605(7) 0.12130(15) 0.70794(15)
C6_2 C 0.01961(7) 0.10305(17) 0.62958(15)
H3_2 H 0.042932 0.086235 0.610410
C8_2 C 0.04919(7) 0.11569(15) 0.76267(16)
Cu6_2 Cu 0.09723(2) 0.11614(2) 0.87748(2)
Cu1 Cu 0.83751(2) 0.18502(2) 0.55382(2)
Cu2 Cu 0.90277(2) 0.11614(2) 0.37748(2)
O1_2 O 0.89328(4) 0.18592(10) 0.58043(10)
O2_2 O 0.92202(5) 0.11327(10) 0.48913(10)
O5_2 O 0.82077(5) 0.18842(10) 0.44106(10)
O6_2 O 0.84742(4) 0.12082(10) 0.34435(10)
O7_2 O 0.67652(5) 0.30672(11) 0.18573(11)
O8_2 O 0.71877(5) 0.29652(11) 0.09157(10)
N1_2 N 0.83587(5) 0.06063(11) 0.55558(14)
C1_2 C 0.92064(6) 0.14611(13) 0.55453(14)
C2_2 C 0.95447(6) 0.13757(14) 0.60738(13)
C3_2 C 0.95103(7) 0.15635(19) 0.68569(15)
H1_2 H 0.928093 0.175558 0.704583
C4_2 C 0.98132(7) 0.1468(2) 0.73596(15)
H2_2 H 0.978394 0.157528 0.788869
C7_2 C 0.98885(7) 0.10948(16) 0.57911(15)
H4_2 H 0.991244 0.095136 0.526963
C9_2 C 0.82183(6) 0.16392(13) 0.37304(15)
C10_2 C 0.79092(7) 0.19089(14) 0.31958(14)
C11_2 C 0.79517(7) 0.18335(16) 0.23883(14)
H5_2 H 0.815811 0.156123 0.218768
C12_2 C 0.76891(7) 0.21609(16) 0.18840(14)
H6_2 H 0.772274 0.211919 0.134680
C13_2 C 0.73751(7) 0.25519(16) 0.21810(15)
C14_2 C 0.73226(7) 0.26016(15) 0.29918(15)
H7_2 H 0.710755 0.284335 0.319324
C15_2 C 0.75901(6) 0.22918(15) 0.34878(15)
H8_2 H 0.755772 0.233830 0.402492
C16_2 C 0.70912(7) 0.28940(15) 0.16244(15)
C17_2 C 0.81409(7) 0.01932(15) 0.50605(14)
H9_2 H 0.797533 0.046122 0.473389
C21_2 C 0.85864(7) 0.02058(14) 0.60378(14)
H12_2 H 0.873254 0.048200 0.639516
Cu4_2 Cu 0.66249(2) 0.31498(2) 0.05382(2)
O9_2 O 0.95787(5) 0.11427(11) 0.33562(11)
O10_2 O 0.91777(5) 0.11363(12) 0.23720(12)
O11_2 O 0.82348(5) 0.19328(11) 0.68573(11)
O12_2 O 0.78123(5) 0.20348(11) 0.59157(10)
N9 N 0.84086(5) 0.31199(12) 0.54708(15)
N10 N 0.90580(5) 0.24299(11) 0.37202(14)
S1_2 S 0.87433(2) 0.76249(4) 0.60361(5)
S2_2 S 0.80740(2) 0.61020(4) 0.47987(4)
S3_2 S 0.87178(2) 0.69266(4) 0.30500(4)
S4_2 S 0.93521(2) 0.54291(4) 0.43933(5)
N3_2 N 0.89856(5) 0.99207(11) 0.38061(14)
N5_2 N 0.81855(6) 0.77144(13) 0.50202(13)
N6_2 N 0.86308(6) 0.60149(13) 0.58106(14)
N7_2 N 0.92154(7) 0.70388(13) 0.41774(13)
N8_2 N 0.88559(6) 0.53202(13) 0.32604(14)
C18_2 C 0.81501(7) 0.93959(15) 0.50111(14)
H10_2 H 0.799455 0.913455 0.465915
C19_2 C 0.83952(6) 0.89889(14) 0.54954(16)
C20_2 C 0.86158(7) 0.94085(15) 0.60332(15)
H11_2 H 0.877790 0.915402 0.637772
C22_2 C 0.84136(7) 0.81372(15) 0.54608(17)
C23_2 C 0.82668(8) 0.69536(15) 0.51529(16)
C24_2 C 0.85521(7) 0.67764(14) 0.56741(16)
C25_2 C 0.83998(7) 0.55941(15) 0.53869(16)
C26_2 C 0.84017(7) 0.47369(15) 0.53997(15)
C27_2 C 0.81304(8) 0.43060(16) 0.50031(16)
H13_2 H 0.794236 0.454885 0.470952
C28_2 C 0.81469(8) 0.35050(16) 0.50561(17)
H14_2 H 0.796537 0.321696 0.478771
C29_2 C 0.86704(7) 0.35441(15) 0.58463(16)
H15_2 H 0.885687 0.328581 0.613048
C30_2 C 0.86769(7) 0.43475(15) 0.58323(17)
H16_2 H 0.886151 0.462166 0.610651
C31_2 C 0.87646(7) 0.95364(15) 0.33055(15)
H17_2 H 0.861018 0.982316 0.297186
C32_2 C 0.87520(7) 0.87343(15) 0.32544(15)
H18_2 H 0.859237 0.849015 0.289773
C33_2 C 0.89834(7) 0.83027(14) 0.37480(17)
C34_2 C 0.92115(8) 0.86939(15) 0.42801(16)
H19_2 H 0.936822 0.842141 0.462108
C35_2 C 0.92011(8) 0.94978(15) 0.42933(16)
H20_2 H 0.935074 0.975713 0.465736
C36_2 C 0.89957(7) 0.74462(14) 0.37195(17)
C37_2 C 0.89110(8) 0.60842(15) 0.34295(17)
C38_2 C 0.91632(9) 0.62710(15) 0.40076(16)
C39_2 C 0.90696(7) 0.49092(14) 0.37279(18)
C40_2 C 0.90743(7) 0.40554(15) 0.37243(18)
C41_2 C 0.88460(8) 0.36492(15) 0.32020(16)
H21_2 H 0.869509 0.391336 0.284371
C42_2 C 0.88467(7) 0.28475(16) 0.32237(16)
H22_2 H 0.869155 0.258262 0.287360
C43_2 C 0.92835(7) 0.28256(15) 0.42004(16)
H23_2 H 0.944079 0.254658 0.453498
C44_2 C 0.92979(8) 0.36304(16) 0.42314(16)
H24_2 H 0.945567 0.387969 0.458795
O1_3 O 0.10672(4) 0.18592(10) 0.08043(10)
N1_3 N 0.16413(5) 0.06063(11) 0.05558(14)
C1_3 C 0.07936(6) 0.14611(13) 0.05453(14)
C2_3 C 0.04553(6) 0.13757(14) 0.10738(13)
C3_3 C 0.04897(7) 0.15635(19) 0.18569(15)
H1_3 H 0.071907 0.175558 0.204583
C4_3 C 0.01868(7) 0.1468(2) 0.23596(15)
H2_3 H 0.021606 0.157528 0.288869
C7_3 C 0.01115(7) 0.10948(16) 0.07911(15)
H4_3 H 0.008756 0.095136 0.026963
C17_3 C 0.18591(7) 0.01932(15) 0.00605(14)
C21_3 C 0.14136(7) 0.02058(14) 0.10378(14)
H12_3 H 0.126746 0.048200 0.139516
N9_2 N 0.15914(5) 0.31199(12) 0.04708(15)
O2_3 O 0.07798(5) 0.11327(10) 0.98913(10)
O5_3 O 0.17923(5) 0.18842(10) 0.94106(10)
O6_3 O 0.15258(4) 0.12082(10) 0.84435(10)
C9_3 C 0.17817(6) 0.16392(13) 0.87304(15)
C10_3 C 0.20908(7) 0.19089(14) 0.81958(14)
C11_3 C 0.20483(7) 0.18335(16) 0.73883(14)
H5_3 H 0.184189 0.156123 0.718768
C12_3 C 0.23109(7) 0.21609(16) 0.68840(14)
H6_3 H 0.227726 0.211919 0.634680
C13_3 C 0.26249(7) 0.25519(16) 0.71810(15)
C14_3 C 0.26774(7) 0.26016(15) 0.79918(15)
H7_3 H 0.289245 0.284335 0.819324
C15_3 C 0.24099(6) 0.22918(15) 0.84878(15)
H8_3 H 0.244228 0.233830 0.902492
C16_3 C 0.29088(7) 0.28940(15) 0.66244(15)
H9_3 H 0.202467 0.046122 0.973389
N10_2 N 0.09420(5) 0.24299(11) 0.87202(14)
S1_3 S 0.12567(2) 0.76249(4) 0.10361(5)
N5_3 N 0.18145(6) 0.77144(13) 0.00202(13)
N6_3 N 0.13692(6) 0.60149(13) 0.08106(14)
C18_3 C 0.18499(7) 0.93959(15) 0.00111(14)
C19_3 C 0.16048(6) 0.89889(14) 0.04954(16)
C20_3 C 0.13842(7) 0.94085(15) 0.10332(15)
H11_3 H 0.122210 0.915402 0.137772
C22_3 C 0.15864(7) 0.81372(15) 0.04608(17)
C23_3 C 0.17332(8) 0.69536(15) 0.01529(16)
C24_3 C 0.14479(7) 0.67764(14) 0.06741(16)
C25_3 C 0.16002(7) 0.55941(15) 0.03869(16)
C26_3 C 0.15983(7) 0.47369(15) 0.03997(15)
C27_3 C 0.18696(8) 0.43060(16) 0.00031(16)
C28_3 C 0.18531(8) 0.35050(16) 0.00561(17)
C29_3 C 0.13296(7) 0.35441(15) 0.08463(16)
H15_3 H 0.114313 0.328581 0.113048
C30_3 C 0.13231(7) 0.43475(15) 0.08323(17)
H16_3 H 0.113849 0.462166 0.110651
S2_3 S 0.19260(2) 0.61020(4) 0.97987(4)
S3_3 S 0.12822(2) 0.69266(4) 0.80500(4)
S4_3 S 0.06479(2) 0.54291(4) 0.93933(5)
N3_3 N 0.10144(5) 0.99207(11) 0.88061(14)
N7_3 N 0.07846(7) 0.70388(13) 0.91774(13)
N8_3 N 0.11441(6) 0.53202(13) 0.82604(14)
H10_3 H 0.200545 0.913455 0.965915
H13_3 H 0.205764 0.454885 0.970952
H14_3 H 0.203463 0.321696 0.978771
C31_3 C 0.12354(7) 0.95364(15) 0.83055(15)
H17_3 H 0.138982 0.982316 0.797186
C32_3 C 0.12480(7) 0.87343(15) 0.82544(15)
H18_3 H 0.140763 0.849015 0.789773
C33_3 C 0.10166(7) 0.83027(14) 0.87480(17)
C34_3 C 0.07885(8) 0.86939(15) 0.92801(16)
H19_3 H 0.063178 0.842141 0.962108
C35_3 C 0.07989(8) 0.94978(15) 0.92933(16)
H20_3 H 0.064926 0.975713 0.965736
C36_3 C 0.10043(7) 0.74462(14) 0.87195(17)
C37_3 C 0.10890(8) 0.60842(15) 0.84295(17)
C38_3 C 0.08368(9) 0.62710(15) 0.90076(16)
C39_3 C 0.09304(7) 0.49092(14) 0.87279(18)
C40_3 C 0.09257(7) 0.40554(15) 0.87243(18)
C41_3 C 0.11540(8) 0.36492(15) 0.82020(16)
H21_3 H 0.130491 0.391336 0.784371
C42_3 C 0.11533(7) 0.28475(16) 0.82237(16)
H22_3 H 0.130845 0.258262 0.787360
C43_3 C 0.07165(7) 0.28256(15) 0.92004(16)
H23_3 H 0.055921 0.254658 0.953498
C44_3 C 0.07021(8) 0.36304(16) 0.92314(16)
H24_3 H 0.054433 0.387969 0.958795
C5_3 C 0.98395(7) 0.12130(15) 0.20794(15)
C6_3 C 0.98039(7) 0.10305(17) 0.12958(15)
H3_3 H 0.957068 0.086235 0.110410
C8_3 C 0.95081(7) 0.11569(15) 0.26267(16)
N2_2 N 0.65914(5) 0.18801(12) 0.04708(15)
C26_4 C 0.65983(7) 0.02631(15) 0.03997(15)
C27_4 C 0.68696(8) 0.06940(16) 0.00031(16)
C28_4 C 0.68531(8) 0.14950(16) 0.00561(17)
C29_4 C 0.63296(7) 0.14559(15) 0.08463(16)
H15_4 H 0.614313 0.171419 0.113048
C30_4 C 0.63231(7) 0.06525(15) 0.08323(17)
H16_4 H 0.613849 0.037834 0.110651
N4_2 N 0.59420(5) 0.25701(11) 0.87202(14)
H13_4 H 0.705764 0.045115 0.970952
H14_4 H 0.703463 0.178304 0.978771
C39_4 C 0.59304(7) 0.00908(14) 0.87279(18)
C40_4 C 0.59257(7) 0.09446(15) 0.87243(18)
C41_4 C 0.61540(8) 0.13508(15) 0.82020(16)
H21_4 H 0.630491 0.108664 0.784371
C42_4 C 0.61533(7) 0.21525(16) 0.82237(16)
H22_4 H 0.630845 0.241738 0.787360
C43_4 C 0.57165(7) 0.21744(15) 0.92004(16)
H23_4 H 0.555921 0.245342 0.953498
C44_4 C 0.57021(8) 0.13696(16) 0.92314(16)
H24_4 H 0.554433 0.112031 0.958795
S1_4 S 0.62567(2) 0.73751(4) 0.10361(5)
O1_4 O 0.60672(4) 0.31408(10) 0.08043(10)
N1_4 N 0.66413(5) 0.43937(11) 0.05558(14)
N5_4 N 0.68145(6) 0.72856(13) 0.00202(13)
N6_4 N 0.63692(6) 0.89851(13) 0.08106(14)
C1_4 C 0.57936(6) 0.35389(13) 0.05453(14)
C2_4 C 0.54553(6) 0.36243(14) 0.10738(13)
C3_4 C 0.54897(7) 0.34365(19) 0.18569(15)
H1_4 H 0.571907 0.324442 0.204583
C4_4 C 0.51868(7) 0.3532(2) 0.23596(15)
H2_4 H 0.521606 0.342472 0.288869
C5_4 C 0.48395(7) 0.37870(15) 0.20794(15)
C6_4 C 0.48039(7) 0.39695(17) 0.12958(15)
H3_4 H 0.457068 0.413765 0.110410
C7_4 C 0.51115(7) 0.39052(16) 0.07911(15)
H4_4 H 0.508756 0.404864 0.026963
C8_4 C 0.45081(7) 0.38431(15) 0.26267(16)
C17_4 C 0.68591(7) 0.48068(15) 0.00605(14)
C18_4 C 0.68499(7) 0.56041(15) 0.00111(14)
C19_4 C 0.66048(6) 0.60111(14) 0.04954(16)
C20_4 C 0.63842(7) 0.55915(15) 0.10332(15)
H11_4 H 0.622210 0.584598 0.137772
C21_4 C 0.64136(7) 0.47942(14) 0.10378(14)
H12_4 H 0.626746 0.451800 0.139516
C22_4 C 0.65864(7) 0.68628(15) 0.04608(17)
C23_4 C 0.67332(8) 0.80464(15) 0.01529(16)
C24_4 C 0.64479(7) 0.82236(14) 0.06741(16)
C25_4 C 0.66002(7) 0.94059(15) 0.03869(16)
S2_4 S 0.69260(2) 0.88980(4) 0.97987(4)
S3_4 S 0.62822(2) 0.80734(4) 0.80500(4)
S4_4 S 0.56479(2) 0.95709(4) 0.93933(5)
O2_4 O 0.57798(5) 0.38673(10) 0.98913(10)
O5_4 O 0.67923(5) 0.31158(10) 0.94106(10)
O6_4 O 0.65258(4) 0.37918(10) 0.84435(10)
N3_4 N 0.60144(5) 0.50793(11) 0.88061(14)
N7_4 N 0.57846(7) 0.79612(13) 0.91774(13)
N8_4 N 0.61441(6) 0.96798(13) 0.82604(14)
C9_4 C 0.67817(6) 0.33608(13) 0.87304(15)
C10_4 C 0.70908(7) 0.30911(14) 0.81958(14)
C11_4 C 0.70483(7) 0.31665(16) 0.73883(14)
H5_4 H 0.684189 0.343877 0.718768
C12_4 C 0.73109(7) 0.28391(16) 0.68840(14)
H6_4 H 0.727726 0.288081 0.634680
C13_4 C 0.76249(7) 0.24481(16) 0.71810(15)
C14_4 C 0.76774(7) 0.23984(15) 0.79918(15)
H7_4 H 0.789245 0.215665 0.819324
C15_4 C 0.74099(6) 0.27082(15) 0.84878(15)
H8_4 H 0.744228 0.266170 0.902492
C16_4 C 0.79088(7) 0.21060(15) 0.66244(15)
H9_4 H 0.702467 0.453878 0.973389
H10_4 H 0.700545 0.586545 0.965915
C31_4 C 0.62354(7) 0.54636(15) 0.83055(15)
H17_4 H 0.638982 0.517684 0.797186
C32_4 C 0.62480(7) 0.62657(15) 0.82544(15)
H18_4 H 0.640763 0.650985 0.789773
C33_4 C 0.60166(7) 0.66973(14) 0.87480(17)
C34_4 C 0.57885(8) 0.63061(15) 0.92801(16)
H19_4 H 0.563178 0.657859 0.962108
C35_4 C 0.57989(8) 0.55022(15) 0.92933(16)
H20_4 H 0.564926 0.524287 0.965736
C36_4 C 0.60043(7) 0.75538(14) 0.87195(17)
C37_4 C 0.60890(8) 0.89158(15) 0.84295(17)
C38_4 C 0.58368(9) 0.87290(15) 0.90076(16)
Cu1_2 Cu 0.66249(2) 0.68502(2) 0.55382(2)
Cu2_2 Cu 0.59723(2) 0.61614(2) 0.37748(2)
S1_5 S 0.62567(2) 0.26249(4) 0.60361(5)
S2_5 S 0.69260(2) 0.11020(4) 0.47987(4)
S3_5 S 0.62822(2) 0.19266(4) 0.30500(4)
S4_5 S 0.56479(2) 0.04291(4) 0.43933(5)
O1_5 O 0.60672(4) 0.68592(10) 0.58043(10)
O2_5 O 0.57798(5) 0.61327(10) 0.48913(10)
O3_3 O 0.45787(5) 0.61427(11) 0.83562(11)
O4_3 O 0.41777(5) 0.61363(12) 0.73720(12)
O5_5 O 0.67923(5) 0.68842(10) 0.44106(10)
O6_5 O 0.65258(4) 0.62082(10) 0.34435(10)
O7_3 O 0.82348(5) 0.80672(11) 0.18573(11)
O8_3 O 0.78123(5) 0.79652(11) 0.09157(10)
N1_5 N 0.66413(5) 0.56063(11) 0.55558(14)
N3_5 N 0.60144(5) 0.49207(11) 0.38061(14)
N5_5 N 0.68145(6) 0.27144(13) 0.50202(13)
N6_5 N 0.63692(6) 0.10149(13) 0.58106(14)
N7_5 N 0.57846(7) 0.20388(13) 0.41774(13)
N8_5 N 0.61441(6) 0.03202(13) 0.32604(14)
C1_5 C 0.57936(6) 0.64611(13) 0.55453(14)
C2_5 C 0.54553(6) 0.63757(14) 0.60738(13)
C3_5 C 0.54897(7) 0.65635(19) 0.68569(15)
H1_5 H 0.571907 0.675558 0.704583
C4_5 C 0.51868(7) 0.6468(2) 0.73596(15)
H2_5 H 0.521606 0.657528 0.788869
C5_5 C 0.48395(7) 0.62130(15) 0.70794(15)
C6_5 C 0.48039(7) 0.60305(17) 0.62958(15)
H3_5 H 0.457068 0.586235 0.610410
C7_5 C 0.51115(7) 0.60948(16) 0.57911(15)
H4_5 H 0.508756 0.595136 0.526963
C8_5 C 0.45081(7) 0.61569(15) 0.76267(16)
C9_5 C 0.67817(6) 0.66392(13) 0.37304(15)
C10_5 C 0.70908(7) 0.69089(14) 0.31958(14)
C11_5 C 0.70483(7) 0.68335(16) 0.23883(14)
H5_5 H 0.684189 0.656123 0.218768
C12_5 C 0.73109(7) 0.71609(16) 0.18840(14)
H6_5 H 0.727726 0.711919 0.134680
C13_5 C 0.76249(7) 0.75519(16) 0.21810(15)
C14_5 C 0.76774(7) 0.76016(15) 0.29918(15)
H7_5 H 0.789245 0.784335 0.319324
C15_5 C 0.74099(6) 0.72918(15) 0.34878(15)
H8_5 H 0.744228 0.733830 0.402492
C16_5 C 0.79088(7) 0.78940(15) 0.16244(15)
C17_5 C 0.68591(7) 0.51932(15) 0.50605(14)
H9_5 H 0.702467 0.546122 0.473389
C18_5 C 0.68499(7) 0.43959(15) 0.50111(14)
H10_5 H 0.700545 0.413455 0.465915
C19_5 C 0.66048(6) 0.39889(14) 0.54954(16)
C20_5 C 0.63842(7) 0.44085(15) 0.60332(15)
H11_5 H 0.622210 0.415402 0.637772
C21_5 C 0.64136(7) 0.52058(14) 0.60378(14)
H12_5 H 0.626746 0.548200 0.639516
C22_5 C 0.65864(7) 0.31372(15) 0.54608(17)
C23_5 C 0.67332(8) 0.19536(15) 0.51529(16)
C24_5 C 0.64479(7) 0.17764(14) 0.56741(16)
C25_5 C 0.66002(7) 0.05941(15) 0.53869(16)
C31_5 C 0.62354(7) 0.45364(15) 0.33055(15)
H17_5 H 0.638982 0.482316 0.297186
C32_5 C 0.62480(7) 0.37343(15) 0.32544(15)
H18_5 H 0.640763 0.349015 0.289773
C33_5 C 0.60166(7) 0.33027(14) 0.37480(17)
C34_5 C 0.57885(8) 0.36939(15) 0.42801(16)
H19_5 H 0.563178 0.342141 0.462108
C35_5 C 0.57989(8) 0.44978(15) 0.42933(16)
H20_5 H 0.564926 0.475713 0.465736
C36_5 C 0.60043(7) 0.24462(14) 0.37195(17)
C37_5 C 0.60890(8) 0.10842(15) 0.34295(17)
C38_5 C 0.58368(9) 0.12710(15) 0.40076(16)
Cu4_3 Cu 0.83751(2) 0.81498(2) 0.05382(2)
Cu6_3 Cu 0.40277(2) 0.61614(2) 0.87748(2)
O9_3 O 0.54213(5) 0.61427(11) 0.33562(11)
O10_3 O 0.58223(5) 0.61363(12) 0.23720(12)
O11_3 O 0.67652(5) 0.69328(11) 0.68573(11)
O12_3 O 0.71877(5) 0.70348(11) 0.59157(10)
N9_3 N 0.65914(5) 0.81199(12) 0.54708(15)
N10_3 N 0.59420(5) 0.74299(11) 0.37202(14)
C26_5 C 0.65983(7) 0.97369(15) 0.53997(15)
C27_5 C 0.68696(8) 0.93060(16) 0.50031(16)
H13_5 H 0.705764 0.954885 0.470952
C28_5 C 0.68531(8) 0.85050(16) 0.50561(17)
H14_5 H 0.703463 0.821696 0.478771
C29_5 C 0.63296(7) 0.85441(15) 0.58463(16)
H15_5 H 0.614313 0.828581 0.613048
C30_5 C 0.63231(7) 0.93475(15) 0.58323(17)
H16_5 H 0.613849 0.962166 0.610651
C39_5 C 0.59304(7) 0.99092(14) 0.37279(18)
C40_5 C 0.59257(7) 0.90554(15) 0.37243(18)
C41_5 C 0.61540(8) 0.86492(15) 0.32020(16)
H21_5 H 0.630491 0.891336 0.284371
C42_5 C 0.61533(7) 0.78475(16) 0.32237(16)
H22_5 H 0.630845 0.758262 0.287360
C43_5 C 0.57165(7) 0.78256(15) 0.42004(16)
H23_5 H 0.555921 0.754658 0.453498
C44_5 C 0.57021(8) 0.86304(16) 0.42314(16)
H24_5 H 0.554433 0.887969 0.458795
S1_6 S 0.12567(2) 0.23751(4) 0.60361(5)
S2_6 S 0.19260(2) 0.38980(4) 0.47987(4)
S3_6 S 0.12822(2) 0.30734(4) 0.30500(4)
S4_6 S 0.06479(2) 0.45709(4) 0.43933(5)
N2_3 N 0.15914(5) 0.68801(12) 0.54708(15)
N3_6 N 0.10144(5) 0.00793(11) 0.38061(14)
N4_3 N 0.09420(5) 0.75701(11) 0.37202(14)
N5_6 N 0.18145(6) 0.22856(13) 0.50202(13)
N6_6 N 0.13692(6) 0.39851(13) 0.58106(14)
N7_6 N 0.07846(7) 0.29612(13) 0.41774(13)
N8_6 N 0.11441(6) 0.46798(13) 0.32604(14)
C18_6 C 0.18499(7) 0.06041(15) 0.50111(14)
H10_6 H 0.200545 0.086545 0.465915
C19_6 C 0.16048(6) 0.10111(14) 0.54954(16)
C20_6 C 0.13842(7) 0.05915(15) 0.60332(15)
H11_6 H 0.122210 0.084598 0.637772
C22_6 C 0.15864(7) 0.18628(15) 0.54608(17)
C23_6 C 0.17332(8) 0.30464(15) 0.51529(16)
C24_6 C 0.14479(7) 0.32236(14) 0.56741(16)
C25_6 C 0.16002(7) 0.44059(15) 0.53869(16)
C26_6 C 0.15983(7) 0.52631(15) 0.53997(15)
C27_6 C 0.18696(8) 0.56940(16) 0.50031(16)
H13_6 H 0.205764 0.545115 0.470952
C28_6 C 0.18531(8) 0.64950(16) 0.50561(17)
H14_6 H 0.203463 0.678304 0.478771
C29_6 C 0.13296(7) 0.64559(15) 0.58463(16)
H15_6 H 0.114313 0.671419 0.613048
C30_6 C 0.13231(7) 0.56525(15) 0.58323(17)
H16_6 H 0.113849 0.537834 0.610651
C31_6 C 0.12354(7) 0.04636(15) 0.33055(15)
H17_6 H 0.138982 0.017684 0.297186
C32_6 C 0.12480(7) 0.12657(15) 0.32544(15)
H18_6 H 0.140763 0.150985 0.289773
C33_6 C 0.10166(7) 0.16973(14) 0.37480(17)
C34_6 C 0.07885(8) 0.13061(15) 0.42801(16)
H19_6 H 0.063178 0.157859 0.462108
C35_6 C 0.07989(8) 0.05022(15) 0.42933(16)
H20_6 H 0.064926 0.024287 0.465736
C36_6 C 0.10043(7) 0.25538(14) 0.37195(17)
C37_6 C 0.10890(8) 0.39158(15) 0.34295(17)
C38_6 C 0.08368(9) 0.37290(15) 0.40076(16)
C39_6 C 0.09304(7) 0.50908(14) 0.37279(18)
C40_6 C 0.09257(7) 0.59446(15) 0.37243(18)
C41_6 C 0.11540(8) 0.63508(15) 0.32020(16)
H21_6 H 0.130491 0.608664 0.284371
C42_6 C 0.11533(7) 0.71525(16) 0.32237(16)
H22_6 H 0.130845 0.741738 0.287360
C43_6 C 0.07165(7) 0.71744(15) 0.42004(16)
H23_6 H 0.055921 0.745342 0.453498
C44_6 C 0.07021(8) 0.63696(16) 0.42314(16)
H24_6 H 0.054433 0.612031 0.458795
Cu3_2 Cu 0.16249(2) 0.81498(2) 0.55382(2)
Cu5_2 Cu 0.09723(2) 0.88386(2) 0.37748(2)
O1_6 O 0.10672(4) 0.81408(10) 0.58043(10)
O2_6 O 0.07798(5) 0.88673(10) 0.48913(10)
O5_6 O 0.17923(5) 0.81158(10) 0.44106(10)
O6_6 O 0.15258(4) 0.87918(10) 0.34435(10)
O7_4 O 0.32348(5) 0.69328(11) 0.18573(11)
O8_4 O 0.28123(5) 0.70348(11) 0.09157(10)
N1_6 N 0.16413(5) 0.93937(11) 0.55558(14)
C1_6 C 0.07936(6) 0.85389(13) 0.55453(14)
C2_6 C 0.04553(6) 0.86243(14) 0.60738(13)
C3_6 C 0.04897(7) 0.84365(19) 0.68569(15)
H1_6 H 0.071907 0.824442 0.704583
C4_6 C 0.01868(7) 0.8532(2) 0.73596(15)
H2_6 H 0.021606 0.842472 0.788869
C7_6 C 0.01115(7) 0.89052(16) 0.57911(15)
H4_6 H 0.008756 0.904864 0.526963
C9_6 C 0.17817(6) 0.83608(13) 0.37304(15)
C10_6 C 0.20908(7) 0.80911(14) 0.31958(14)
C11_6 C 0.20483(7) 0.81665(16) 0.23883(14)
H5_6 H 0.184189 0.843877 0.218768
C12_6 C 0.23109(7) 0.78391(16) 0.18840(14)
H6_6 H 0.227726 0.788081 0.134680
C13_6 C 0.26249(7) 0.74481(16) 0.21810(15)
C14_6 C 0.26774(7) 0.73984(15) 0.29918(15)
H7_6 H 0.289245 0.715665 0.319324
C15_6 C 0.24099(6) 0.77082(15) 0.34878(15)
H8_6 H 0.244228 0.766170 0.402492
C16_6 C 0.29088(7) 0.71060(15) 0.16244(15)
C17_6 C 0.18591(7) 0.98068(15) 0.50605(14)
H9_6 H 0.202467 0.953878 0.473389
C21_6 C 0.14136(7) 0.97942(14) 0.60378(14)
H12_6 H 0.126746 0.951800 0.639516
Cu4_4 Cu 0.33751(2) 0.68502(2) 0.05382(2)
O9_4 O 0.04213(5) 0.88573(11) 0.33562(11)
O10_4 O 0.08223(5) 0.88637(12) 0.23720(12)
O11_4 O 0.17652(5) 0.80672(11) 0.68573(11)
O12_4 O 0.21877(5) 0.79652(11) 0.59157(10)
O3_4 O 0.95787(5) 0.88573(11) 0.83562(11)
O4_4 O 0.91777(5) 0.88637(12) 0.73720(12)
C5_6 C 0.98395(7) 0.87870(15) 0.70794(15)
C6_6 C 0.98039(7) 0.89695(17) 0.62958(15)
H3_6 H 0.957068 0.913765 0.610410
C8_6 C 0.95081(7) 0.88431(15) 0.76267(16)
Cu6_4 Cu 0.90277(2) 0.88386(2) 0.87748(2)
C5_7 C 0.01605(7) 0.87870(15) 0.20794(15)
C6_7 C 0.01961(7) 0.89695(17) 0.12958(15)
H3_7 H 0.042932 0.913765 0.110410
C8_7 C 0.04919(7) 0.88431(15) 0.26267(16)
S1_7 S 0.87433(2) 0.23751(4) 0.10361(5)
N2_4 N 0.84086(5) 0.68801(12) 0.04708(15)
N5_7 N 0.81855(6) 0.22856(13) 0.00202(13)
N6_7 N 0.86308(6) 0.39851(13) 0.08106(14)
C18_7 C 0.81501(7) 0.06041(15) 0.00111(14)
C19_7 C 0.83952(6) 0.10111(14) 0.04954(16)
C20_7 C 0.86158(7) 0.05915(15) 0.10332(15)
H11_7 H 0.877790 0.084598 0.137772
C22_7 C 0.84136(7) 0.18628(15) 0.04608(17)
C23_7 C 0.82668(8) 0.30464(15) 0.01529(16)
C24_7 C 0.85521(7) 0.32236(14) 0.06741(16)
C25_7 C 0.83998(7) 0.44059(15) 0.03869(16)
C26_7 C 0.84017(7) 0.52631(15) 0.03997(15)
C27_7 C 0.81304(8) 0.56940(16) 0.00031(16)
C28_7 C 0.81469(8) 0.64950(16) 0.00561(17)
C29_7 C 0.86704(7) 0.64559(15) 0.08463(16)
H15_7 H 0.885687 0.671419 0.113048
C30_7 C 0.86769(7) 0.56525(15) 0.08323(17)
H16_7 H 0.886151 0.537834 0.110651
S2_7 S 0.80740(2) 0.38980(4) 0.97987(4)
S3_7 S 0.87178(2) 0.30734(4) 0.80500(4)
S4_7 S 0.93521(2) 0.45709(4) 0.93933(5)
N3_7 N 0.89856(5) 0.00793(11) 0.88061(14)
N4_4 N 0.90580(5) 0.75701(11) 0.87202(14)
N7_7 N 0.92154(7) 0.29612(13) 0.91774(13)
N8_7 N 0.88559(6) 0.46798(13) 0.82604(14)
H10_7 H 0.799455 0.086545 0.965915
H13_7 H 0.794236 0.545115 0.970952
H14_7 H 0.796537 0.678304 0.978771
C31_7 C 0.87646(7) 0.04636(15) 0.83055(15)
H17_7 H 0.861018 0.017684 0.797186
C32_7 C 0.87520(7) 0.12657(15) 0.82544(15)
H18_7 H 0.859237 0.150985 0.789773
C33_7 C 0.89834(7) 0.16973(14) 0.87480(17)
C34_7 C 0.92115(8) 0.13061(15) 0.92801(16)
H19_7 H 0.936822 0.157859 0.962108
C35_7 C 0.92011(8) 0.05022(15) 0.92933(16)
H20_7 H 0.935074 0.024287 0.965736
C36_7 C 0.89957(7) 0.25538(14) 0.87195(17)
C37_7 C 0.89110(8) 0.39158(15) 0.84295(17)
C38_7 C 0.91632(9) 0.37290(15) 0.90076(16)
C39_7 C 0.90696(7) 0.50908(14) 0.87279(18)
C40_7 C 0.90743(7) 0.59446(15) 0.87243(18)
C41_7 C 0.88460(8) 0.63508(15) 0.82020(16)
H21_7 H 0.869509 0.608664 0.784371
C42_7 C 0.88467(7) 0.71525(16) 0.82237(16)
H22_7 H 0.869155 0.741738 0.787360
C43_7 C 0.92835(7) 0.71744(15) 0.92004(16)
H23_7 H 0.944079 0.745342 0.953498
C44_7 C 0.92979(8) 0.63696(16) 0.92314(16)
H24_7 H 0.945567 0.612031 0.958795
O1_7 O 0.89328(4) 0.81408(10) 0.08043(10)
N1_7 N 0.83587(5) 0.93937(11) 0.05558(14)
C1_7 C 0.92064(6) 0.85389(13) 0.05453(14)
C2_7 C 0.95447(6) 0.86243(14) 0.10738(13)
C3_7 C 0.95103(7) 0.84365(19) 0.18569(15)
H1_7 H 0.928093 0.824442 0.204583
C4_7 C 0.98132(7) 0.8532(2) 0.23596(15)
H2_7 H 0.978394 0.842472 0.288869
C7_7 C 0.98885(7) 0.89052(16) 0.07911(15)
H4_7 H 0.991244 0.904864 0.026963
C17_7 C 0.81409(7) 0.98068(15) 0.00605(14)
C21_7 C 0.85864(7) 0.97942(14) 0.10378(14)
H12_7 H 0.873254 0.951800 0.139516
O2_7 O 0.92202(5) 0.88673(10) 0.98913(10)
O5_7 O 0.82077(5) 0.81158(10) 0.94106(10)
O6_7 O 0.84742(4) 0.87918(10) 0.84435(10)
C9_7 C 0.82183(6) 0.83608(13) 0.87304(15)
C10_7 C 0.79092(7) 0.80911(14) 0.81958(14)
C11_7 C 0.79517(7) 0.81665(16) 0.73883(14)
H5_7 H 0.815811 0.843877 0.718768
C12_7 C 0.76891(7) 0.78391(16) 0.68840(14)
H6_7 H 0.772274 0.788081 0.634680
C13_7 C 0.73751(7) 0.74481(16) 0.71810(15)
C14_7 C 0.73226(7) 0.73984(15) 0.79918(15)
H7_7 H 0.710755 0.715665 0.819324
C15_7 C 0.75901(6) 0.77082(15) 0.84878(15)
H8_7 H 0.755772 0.766170 0.902492
C16_7 C 0.70912(7) 0.71060(15) 0.66244(15)
H9_7 H 0.797533 0.953878 0.973389
S1_8 S 0.37433(2) 0.26249(4) 0.10361(5)
O1_8 O 0.39328(4) 0.68592(10) 0.08043(10)
N1_8 N 0.33587(5) 0.56063(11) 0.05558(14)
N5_8 N 0.31855(6) 0.27144(13) 0.00202(13)
N6_8 N 0.36308(6) 0.10149(13) 0.08106(14)
C1_8 C 0.42064(6) 0.64611(13) 0.05453(14)
C2_8 C 0.45447(6) 0.63757(14) 0.10738(13)
C3_8 C 0.45103(7) 0.65635(19) 0.18569(15)
H1_8 H 0.428093 0.675558 0.204583
C4_8 C 0.48132(7) 0.6468(2) 0.23596(15)
H2_8 H 0.478394 0.657528 0.288869
C5_8 C 0.51605(7) 0.62130(15) 0.20794(15)
C6_8 C 0.51961(7) 0.60305(17) 0.12958(15)
H3_8 H 0.542932 0.586235 0.110410
C7_8 C 0.48885(7) 0.60948(16) 0.07911(15)
H4_8 H 0.491244 0.595136 0.026963
C8_8 C 0.54919(7) 0.61569(15) 0.26267(16)
C17_8 C 0.31409(7) 0.51932(15) 0.00605(14)
C18_8 C 0.31501(7) 0.43959(15) 0.00111(14)
C19_8 C 0.33952(6) 0.39889(14) 0.04954(16)
C20_8 C 0.36158(7) 0.44085(15) 0.10332(15)
H11_8 H 0.377790 0.415402 0.137772
C21_8 C 0.35864(7) 0.52058(14) 0.10378(14)
H12_8 H 0.373254 0.548200 0.139516
C22_8 C 0.34136(7) 0.31372(15) 0.04608(17)
C23_8 C 0.32668(8) 0.19536(15) 0.01529(16)
C24_8 C 0.35521(7) 0.17764(14) 0.06741(16)
C25_8 C 0.33998(7) 0.05941(15) 0.03869(16)
N9_4 N 0.34086(5) 0.81199(12) 0.04708(15)
S2_8 S 0.30740(2) 0.11020(4) 0.97987(4)
S3_8 S 0.37178(2) 0.19266(4) 0.80500(4)
S4_8 S 0.43521(2) 0.04291(4) 0.93933(5)
O2_8 O 0.42202(5) 0.61327(10) 0.98913(10)
O5_8 O 0.32077(5) 0.68842(10) 0.94106(10)
O6_8 O 0.34742(4) 0.62082(10) 0.84435(10)
N3_8 N 0.39856(5) 0.49207(11) 0.88061(14)
N7_8 N 0.42154(7) 0.20388(13) 0.91774(13)
N8_8 N 0.38559(6) 0.03202(13) 0.82604(14)
C9_8 C 0.32183(6) 0.66392(13) 0.87304(15)
C10_8 C 0.29092(7) 0.69089(14) 0.81958(14)
C11_8 C 0.29517(7) 0.68335(16) 0.73883(14)
H5_8 H 0.315811 0.656123 0.718768
C12_8 C 0.26891(7) 0.71609(16) 0.68840(14)
H6_8 H 0.272274 0.711919 0.634680
C13_8 C 0.23751(7) 0.75519(16) 0.71810(15)
C14_8 C 0.23226(7) 0.76016(15) 0.79918(15)
H7_8 H 0.210755 0.784335 0.819324
C15_8 C 0.25901(6) 0.72918(15) 0.84878(15)
H8_8 H 0.255772 0.733830 0.902492
C16_8 C 0.20912(7) 0.78940(15) 0.66244(15)
H9_8 H 0.297533 0.546122 0.973389
H10_8 H 0.299455 0.413455 0.965915
C31_8 C 0.37646(7) 0.45364(15) 0.83055(15)
H17_8 H 0.361018 0.482316 0.797186
C32_8 C 0.37520(7) 0.37343(15) 0.82544(15)
H18_8 H 0.359237 0.349015 0.789773
C33_8 C 0.39834(7) 0.33027(14) 0.87480(17)
C34_8 C 0.42115(8) 0.36939(15) 0.92801(16)
H19_8 H 0.436822 0.342141 0.962108
C35_8 C 0.42011(8) 0.44978(15) 0.92933(16)
H20_8 H 0.435074 0.475713 0.965736
C36_8 C 0.39957(7) 0.24462(14) 0.87195(17)
C37_8 C 0.39110(8) 0.10842(15) 0.84295(17)
C38_8 C 0.41632(9) 0.12710(15) 0.90076(16)
N10_4 N 0.40580(5) 0.74299(11) 0.87202(14)
C26_8 C 0.34017(7) 0.97369(15) 0.03997(15)
C27_8 C 0.31304(8) 0.93060(16) 0.00031(16)
C28_8 C 0.31469(8) 0.85050(16) 0.00561(17)
C29_8 C 0.36704(7) 0.85441(15) 0.08463(16)
H15_8 H 0.385687 0.828581 0.113048
C30_8 C 0.36769(7) 0.93475(15) 0.08323(17)
H16_8 H 0.386151 0.962166 0.110651
H13_8 H 0.294236 0.954885 0.970952
H14_8 H 0.296537 0.821696 0.978771
C39_8 C 0.40696(7) 0.99092(14) 0.87279(18)
C40_8 C 0.40743(7) 0.90554(15) 0.87243(18)
C41_8 C 0.38460(8) 0.86492(15) 0.82020(16)
H21_8 H 0.369509 0.891336 0.784371
C42_8 C 0.38467(7) 0.78475(16) 0.82237(16)
H22_8 H 0.369155 0.758262 0.787360
C43_8 C 0.42835(7) 0.78256(15) 0.92004(16)
H23_8 H 0.444079 0.754658 0.953498
C44_8 C 0.42979(8) 0.86304(16) 0.92314(16)
H24_8 H 0.445567 0.887969 0.958795
loop_
_geom_bond_atom_site_label_1
_geom_bond_atom_site_label_2
_geom_bond_site_symmetry_1
_geom_bond_site_symmetry_2
N2 C28 1_555 1_555
N4 C42 1_555 1_555
C27 C26 1_555 1_555
H13 C27 1_555 1_555
C28 C27 1_555 1_555
H14 C28 1_555 1_555
C29 N2 1_555 1_555
H15 C29 1_555 1_555
C30 C26 1_555 1_555
H16 C30 1_555 1_555
C40 C39 1_555 1_555
C41 C40 1_555 1_555
H21 C41 1_555 1_555
C42 C41 1_555 1_555
H22 C42 1_555 1_555
C43 N4 1_555 1_555
H23 C43 1_555 1_555
C44 C40 1_555 1_555
H24 C44 1_555 1_555
Cu3 N2 1_555 1_555
Cu5 N4 1_555 1_555
C29 C30 1_555 1_555
C43 C44 1_555 1_555
Cu3 O1 1_555 1_555
Cu5 O2 1_555 1_555
S1 C22 1_555 1_555
S2 C23 1_555 1_555
S3 C36 1_555 1_555
S4 C38 1_555 1_555
O1 C1 1_555 1_555
O2 C1 1_555 1_555
O3 C8 1_555 1_555
O4 C8 1_555 1_555
O5 Cu3 1_555 1_555
O6 Cu5 1_555 1_555
O7 C16 1_555 1_555
O8 C16 1_555 1_555
N1 Cu3 1_555 1_555
N3 Cu5 1_555 1_555
N5 C22 1_555 1_555
N6 C24 1_555 1_555
N7 C36 1_555 1_555
N8 C37 1_555 1_555
C1 C2 1_555 1_555
C2 C3 1_555 1_555
C3 H1 1_555 1_555
C4 C3 1_555 1_555
H2 C4 1_555 1_555
C5 C4 1_555 1_555
C6 C5 1_555 1_555
H3 C6 1_555 1_555
C7 C2 1_555 1_555
H4 C7 1_555 1_555
C8 C5 1_555 1_555
C9 O5 1_555 1_555
C10 C9 1_555 1_555
C11 C10 1_555 1_555
H5 C11 1_555 1_555
C12 C11 1_555 1_555
H6 C12 1_555 1_555
C13 C12 1_555 1_555
C14 C13 1_555 1_555
H7 C14 1_555 1_555
C15 C10 1_555 1_555
H8 C15 1_555 1_555
C16 C13 1_555 1_555
C17 N1 1_555 1_555
H9 C17 1_555 1_555
C18 C17 1_555 1_555
H10 C18 1_555 1_555
C19 C18 1_555 1_555
C20 C19 1_555 1_555
H11 C20 1_555 1_555
C21 N1 1_555 1_555
H12 C21 1_555 1_555
C22 C19 1_555 1_555
C23 N5 1_555 1_555
C24 S1 1_555 1_555
C25 S2 1_555 1_555
C31 N3 1_555 1_555
H17 C31 1_555 1_555
C32 C31 1_555 1_555
H18 C32 1_555 1_555
C33 C32 1_555 1_555
C34 C33 1_555 1_555
H19 C34 1_555 1_555
C35 N3 1_555 1_555
H20 C35 1_555 1_555
C36 C33 1_555 1_555
C37 S3 1_555 1_555
C38 N7 1_555 1_555
Cu4 O7 1_555 1_555
Cu6 O3 1_555 1_555
O9 Cu5 1_555 1_555
O10 Cu5 1_555 1_555
O11 Cu3 1_555 1_555
O12 Cu3 1_555 1_555
O4 Cu6 1_555 1_555
O6 C9 1_555 1_555
O8 Cu4 1_555 1_555
N6 C25 1_555 1_555
C6 C7 1_555 1_555
C14 C15 1_555 1_555
C20 C21 1_555 1_555
C23 C24 1_555 1_555
C34 C35 1_555 1_555
C37 C38 1_555 1_555
O3_2 C8_2 1_555 1_555
O4_2 C8_2 1_555 1_555
C6_2 C5_2 1_555 1_555
H3_2 C6_2 1_555 1_555
C8_2 C5_2 1_555 1_555
Cu6_2 O3_2 1_555 1_555
O4_2 Cu6_2 1_555 1_555
Cu1 O1_2 1_555 1_555
Cu2 O2_2 1_555 1_555
O1_2 C1_2 1_555 1_555
O2_2 C1_2 1_555 1_555
O5_2 Cu1 1_555 1_555
O6_2 Cu2 1_555 1_555
O7_2 C16_2 1_555 1_555
O8_2 C16_2 1_555 1_555
N1_2 Cu1 1_555 1_555
C1_2 C2_2 1_555 1_555
C2_2 C3_2 1_555 1_555
C3_2 H1_2 1_555 1_555
C4_2 C3_2 1_555 1_555
H2_2 C4_2 1_555 1_555
C7_2 C2_2 1_555 1_555
H4_2 C7_2 1_555 1_555
C9_2 O5_2 1_555 1_555
C10_2 C9_2 1_555 1_555
C11_2 C10_2 1_555 1_555
H5_2 C11_2 1_555 1_555
C12_2 C11_2 1_555 1_555
H6_2 C12_2 1_555 1_555
C13_2 C12_2 1_555 1_555
C14_2 C13_2 1_555 1_555
H7_2 C14_2 1_555 1_555
C15_2 C10_2 1_555 1_555
H8_2 C15_2 1_555 1_555
C16_2 C13_2 1_555 1_555
C17_2 N1_2 1_555 1_555
H9_2 C17_2 1_555 1_555
C21_2 N1_2 1_555 1_555
H12_2 C21_2 1_555 1_555
Cu4_2 O7_2 1_555 1_555
O9_2 Cu2 1_555 1_555
O10_2 Cu2 1_555 1_555
O11_2 Cu1 1_555 1_555
O12_2 Cu1 1_555 1_555
N9 Cu1 1_555 1_555
N10 Cu2 1_555 1_555
O6_2 C9_2 1_555 1_555
O8_2 Cu4_2 1_555 1_555
C14_2 C15_2 1_555 1_555
S1_2 C22_2 1_555 1_555
S2_2 C23_2 1_555 1_555
S3_2 C36_2 1_555 1_555
S4_2 C38_2 1_555 1_555
N9 C28_2 1_555 1_555
N10 C42_2 1_555 1_555
N5_2 C22_2 1_555 1_555
N6_2 C24_2 1_555 1_555
N7_2 C36_2 1_555 1_555
N8_2 C37_2 1_555 1_555
H10_2 C18_2 1_555 1_555
C19_2 C18_2 1_555 1_555
C20_2 C19_2 1_555 1_555
H11_2 C20_2 1_555 1_555
C22_2 C19_2 1_555 1_555
C23_2 N5_2 1_555 1_555
C24_2 S1_2 1_555 1_555
C25_2 S2_2 1_555 1_555
C26_2 C25_2 1_555 1_555
C27_2 C26_2 1_555 1_555
H13_2 C27_2 1_555 1_555
C28_2 C27_2 1_555 1_555
H14_2 C28_2 1_555 1_555
C29_2 N9 1_555 1_555
H15_2 C29_2 1_555 1_555
C30_2 C26_2 1_555 1_555
H16_2 C30_2 1_555 1_555
C31_2 N3_2 1_555 1_555
H17_2 C31_2 1_555 1_555
C32_2 C31_2 1_555 1_555
H18_2 C32_2 1_555 1_555
C33_2 C32_2 1_555 1_555
C34_2 C33_2 1_555 1_555
H19_2 C34_2 1_555 1_555
C35_2 N3_2 1_555 1_555
H20_2 C35_2 1_555 1_555
C36_2 C33_2 1_555 1_555
C37_2 S3_2 1_555 1_555
C38_2 N7_2 1_555 1_555
C39_2 S4_2 1_555 1_555
C40_2 C39_2 1_555 1_555
C41_2 C40_2 1_555 1_555
H21_2 C41_2 1_555 1_555
C42_2 C41_2 1_555 1_555
H22_2 C42_2 1_555 1_555
C43_2 N10 1_555 1_555
H23_2 C43_2 1_555 1_555
C44_2 C40_2 1_555 1_555
H24_2 C44_2 1_555 1_555
N6_2 C25_2 1_555 1_555
N8_2 C39_2 1_555 1_555
C23_2 C24_2 1_555 1_555
C29_2 C30_2 1_555 1_555
C34_2 C35_2 1_555 1_555
C37_2 C38_2 1_555 1_555
C43_2 C44_2 1_555 1_555
Cu4 O1_3 1_555 1_555
O1_3 C1_3 1_555 1_555
N1_3 Cu4 1_555 1_555
C1_3 C2_3 1_555 1_555
C2_3 C3_3 1_555 1_555
C3_3 H1_3 1_555 1_555
C4_3 C3_3 1_555 1_555
H2_3 C4_3 1_555 1_555
C7_3 C2_3 1_555 1_555
H4_3 C7_3 1_555 1_555
C17_3 N1_3 1_555 1_555
C21_3 N1_3 1_555 1_555
H12_3 C21_3 1_555 1_555
N9_2 Cu4 1_555 1_555
Cu6_2 O2_3 1_555 1_555
O6_3 Cu6_2 1_555 1_555
O11 C16_3 1_555 1_555
O12 C16_3 1_555 1_555
C9_3 O5_3 1_555 1_555
C10_3 C9_3 1_555 1_555
C11_3 C10_3 1_555 1_555
H5_3 C11_3 1_555 1_555
C12_3 C11_3 1_555 1_555
H6_3 C12_3 1_555 1_555
C13_3 C12_3 1_555 1_555
C14_3 C13_3 1_555 1_555
H7_3 C14_3 1_555 1_555
C15_3 C10_3 1_555 1_555
H8_3 C15_3 1_555 1_555
C16_3 C13_3 1_555 1_555
N10_2 Cu6_2 1_555 1_555
O6_3 C9_3 1_555 1_555
C14_3 C15_3 1_555 1_555
S1_3 C22_3 1_555 1_555
N9_2 C28_3 1_555 1_555
N5_3 C22_3 1_555 1_555
N6_3 C24_3 1_555 1_555
C19_3 C18_3 1_555 1_555
C20_3 C19_3 1_555 1_555
H11_3 C20_3 1_555 1_555
C22_3 C19_3 1_555 1_555
C23_3 N5_3 1_555 1_555
C24_3 S1_3 1_555 1_555
C26_3 C25_3 1_555 1_555
C27_3 C26_3 1_555 1_555
C28_3 C27_3 1_555 1_555
C29_3 N9_2 1_555 1_555
H15_3 C29_3 1_555 1_555
C30_3 C26_3 1_555 1_555
H16_3 C30_3 1_555 1_555
N6_3 C25_3 1_555 1_555
C23_3 C24_3 1_555 1_555
C29_3 C30_3 1_555 1_555
S3_3 C36_3 1_555 1_555
S4_3 C38_3 1_555 1_555
N10_2 C42_3 1_555 1_555
N7_3 C36_3 1_555 1_555
N8_3 C37_3 1_555 1_555
C31_3 N3_3 1_555 1_555
H17_3 C31_3 1_555 1_555
C32_3 C31_3 1_555 1_555
H18_3 C32_3 1_555 1_555
C33_3 C32_3 1_555 1_555
C34_3 C33_3 1_555 1_555
H19_3 C34_3 1_555 1_555
C35_3 N3_3 1_555 1_555
H20_3 C35_3 1_555 1_555
C36_3 C33_3 1_555 1_555
C37_3 S3_3 1_555 1_555
C38_3 N7_3 1_555 1_555
C39_3 S4_3 1_555 1_555
C40_3 C39_3 1_555 1_555
C41_3 C40_3 1_555 1_555
H21_3 C41_3 1_555 1_555
C42_3 C41_3 1_555 1_555
H22_3 C42_3 1_555 1_555
C43_3 N10_2 1_555 1_555
H23_3 C43_3 1_555 1_555
C44_3 C40_3 1_555 1_555
H24_3 C44_3 1_555 1_555
N8_3 C39_3 1_555 1_555
C34_3 C35_3 1_555 1_555
C37_3 C38_3 1_555 1_555
C43_3 C44_3 1_555 1_555
O9_2 C8_3 1_555 1_555
O10_2 C8_3 1_555 1_555
C6_3 C5_3 1_555 1_555
H3_3 C6_3 1_555 1_555
C8_3 C5_3 1_555 1_555
N2_2 C28_4 1_555 1_555
C27_4 C26_4 1_555 1_555
C28_4 C27_4 1_555 1_555
C29_4 N2_2 1_555 1_555
H15_4 C29_4 1_555 1_555
C30_4 C26_4 1_555 1_555
H16_4 C30_4 1_555 1_555
Cu4_2 N2_2 1_555 1_555
C29_4 C30_4 1_555 1_555
N4_2 C42_4 1_555 1_555
C40_4 C39_4 1_555 1_555
C41_4 C40_4 1_555 1_555
H21_4 C41_4 1_555 1_555
C42_4 C41_4 1_555 1_555
H22_4 C42_4 1_555 1_555
C43_4 N4_2 1_555 1_555
H23_4 C43_4 1_555 1_555
C44_4 C40_4 1_555 1_555
H24_4 C44_4 1_555 1_555
Cu6 N4_2 1_555 1_555
C43_4 C44_4 1_555 1_555
Cu4_2 O1_4 1_555 1_555
S1_4 C22_4 1_555 1_555
O1_4 C1_4 1_555 1_555
O9 C8_4 1_555 1_555
O10 C8_4 1_555 1_555
N1_4 Cu4_2 1_555 1_555
N5_4 C22_4 1_555 1_555
N6_4 C24_4 1_555 1_555
C1_4 C2_4 1_555 1_555
C2_4 C3_4 1_555 1_555
C3_4 H1_4 1_555 1_555
C4_4 C3_4 1_555 1_555
H2_4 C4_4 1_555 1_555
C5_4 C4_4 1_555 1_555
C6_4 C5_4 1_555 1_555
H3_4 C6_4 1_555 1_555
C7_4 C2_4 1_555 1_555
H4_4 C7_4 1_555 1_555
C8_4 C5_4 1_555 1_555
C17_4 N1_4 1_555 1_555
C18_4 C17_4 1_555 1_555
C19_4 C18_4 1_555 1_555
C20_4 C19_4 1_555 1_555
H11_4 C20_4 1_555 1_555
C21_4 N1_4 1_555 1_555
H12_4 C21_4 1_555 1_555
C22_4 C19_4 1_555 1_555
C23_4 N5_4 1_555 1_555
C24_4 S1_4 1_555 1_555
N6_4 C25_4 1_555 1_555
C6_4 C7_4 1_555 1_555
C20_4 C21_4 1_555 1_555
C23_4 C24_4 1_555 1_555
Cu6 O2_4 1_555 1_555
S3_4 C36_4 1_555 1_555
S4_4 C38_4 1_555 1_555
O6_4 Cu6 1_555 1_555
O11_2 C16_4 1_555 1_555
O12_2 C16_4 1_555 1_555
N3_4 Cu6 1_555 1_555
N7_4 C36_4 1_555 1_555
N8_4 C37_4 1_555 1_555
C9_4 O5_4 1_555 1_555
C10_4 C9_4 1_555 1_555
C11_4 C10_4 1_555 1_555
H5_4 C11_4 1_555 1_555
C12_4 C11_4 1_555 1_555
H6_4 C12_4 1_555 1_555
C13_4 C12_4 1_555 1_555
C14_4 C13_4 1_555 1_555
H7_4 C14_4 1_555 1_555
C15_4 C10_4 1_555 1_555
H8_4 C15_4 1_555 1_555
C16_4 C13_4 1_555 1_555
C31_4 N3_4 1_555 1_555
H17_4 C31_4 1_555 1_555
C32_4 C31_4 1_555 1_555
H18_4 C32_4 1_555 1_555
C33_4 C32_4 1_555 1_555
C34_4 C33_4 1_555 1_555
H19_4 C34_4 1_555 1_555
C35_4 N3_4 1_555 1_555
H20_4 C35_4 1_555 1_555
C36_4 C33_4 1_555 1_555
C37_4 S3_4 1_555 1_555
C38_4 N7_4 1_555 1_555
O6_4 C9_4 1_555 1_555
C14_4 C15_4 1_555 1_555
C34_4 C35_4 1_555 1_555
C37_4 C38_4 1_555 1_555
Cu1_2 O1_5 1_555 1_555
Cu2_2 O2_5 1_555 1_555
S1_5 C22_5 1_555 1_555
S2_5 C23_5 1_555 1_555
S3_5 C36_5 1_555 1_555
S4_5 C38_5 1_555 1_555
O1_5 C1_5 1_555 1_555
O2_5 C1_5 1_555 1_555
O3_3 C8_5 1_555 1_555
O4_3 C8_5 1_555 1_555
O5_5 Cu1_2 1_555 1_555
O6_5 Cu2_2 1_555 1_555
O7_3 C16_5 1_555 1_555
O8_3 C16_5 1_555 1_555
N1_5 Cu1_2 1_555 1_555
N3_5 Cu2_2 1_555 1_555
N5_5 C22_5 1_555 1_555
N6_5 C24_5 1_555 1_555
N7_5 C36_5 1_555 1_555
N8_5 C37_5 1_555 1_555
C1_5 C2_5 1_555 1_555
C2_5 C3_5 1_555 1_555
C3_5 H1_5 1_555 1_555
C4_5 C3_5 1_555 1_555
H2_5 C4_5 1_555 1_555
C5_5 C4_5 1_555 1_555
C6_5 C5_5 1_555 1_555
H3_5 C6_5 1_555 1_555
C7_5 C2_5 1_555 1_555
H4_5 C7_5 1_555 1_555
C8_5 C5_5 1_555 1_555
C9_5 O5_5 1_555 1_555
C10_5 C9_5 1_555 1_555
C11_5 C10_5 1_555 1_555
H5_5 C11_5 1_555 1_555
C12_5 C11_5 1_555 1_555
H6_5 C12_5 1_555 1_555
C13_5 C12_5 1_555 1_555
C14_5 C13_5 1_555 1_555
H7_5 C14_5 1_555 1_555
C15_5 C10_5 1_555 1_555
H8_5 C15_5 1_555 1_555
C16_5 C13_5 1_555 1_555
C17_5 N1_5 1_555 1_555
H9_5 C17_5 1_555 1_555
C18_5 C17_5 1_555 1_555
H10_5 C18_5 1_555 1_555
C19_5 C18_5 1_555 1_555
C20_5 C19_5 1_555 1_555
H11_5 C20_5 1_555 1_555
C21_5 N1_5 1_555 1_555
H12_5 C21_5 1_555 1_555
C22_5 C19_5 1_555 1_555
C23_5 N5_5 1_555 1_555
C24_5 S1_5 1_555 1_555
C25_5 S2_5 1_555 1_555
C31_5 N3_5 1_555 1_555
H17_5 C31_5 1_555 1_555
C32_5 C31_5 1_555 1_555
H18_5 C32_5 1_555 1_555
C33_5 C32_5 1_555 1_555
C34_5 C33_5 1_555 1_555
H19_5 C34_5 1_555 1_555
C35_5 N3_5 1_555 1_555
H20_5 C35_5 1_555 1_555
C36_5 C33_5 1_555 1_555
C37_5 S3_5 1_555 1_555
C38_5 N7_5 1_555 1_555
Cu4_3 O7_3 1_555 1_555
Cu6_3 O3_3 1_555 1_555
O9_3 Cu2_2 1_555 1_555
O10_3 Cu2_2 1_555 1_555
O11_3 Cu1_2 1_555 1_555
O12_3 Cu1_2 1_555 1_555
N9_3 Cu1_2 1_555 1_555
N10_3 Cu2_2 1_555 1_555
O4_3 Cu6_3 1_555 1_555
O6_5 C9_5 1_555 1_555
O8_3 Cu4_3 1_555 1_555
N6_5 C25_5 1_555 1_555
C6_5 C7_5 1_555 1_555
C14_5 C15_5 1_555 1_555
C20_5 C21_5 1_555 1_555
C23_5 C24_5 1_555 1_555
C34_5 C35_5 1_555 1_555
C37_5 C38_5 1_555 1_555
N9_3 C28_5 1_555 1_555
N10_3 C42_5 1_555 1_555
C27_5 C26_5 1_555 1_555
H13_5 C27_5 1_555 1_555
C28_5 C27_5 1_555 1_555
H14_5 C28_5 1_555 1_555
C29_5 N9_3 1_555 1_555
H15_5 C29_5 1_555 1_555
C30_5 C26_5 1_555 1_555
H16_5 C30_5 1_555 1_555
C40_5 C39_5 1_555 1_555
C41_5 C40_5 1_555 1_555
H21_5 C41_5 1_555 1_555
C42_5 C41_5 1_555 1_555
H22_5 C42_5 1_555 1_555
C43_5 N10_3 1_555 1_555
H23_5 C43_5 1_555 1_555
C44_5 C40_5 1_555 1_555
H24_5 C44_5 1_555 1_555
C29_5 C30_5 1_555 1_555
C43_5 C44_5 1_555 1_555
S1_6 C22_6 1_555 1_555
S2_6 C23_6 1_555 1_555
S3_6 C36_6 1_555 1_555
S4_6 C38_6 1_555 1_555
N2_3 C28_6 1_555 1_555
N4_3 C42_6 1_555 1_555
N5_6 C22_6 1_555 1_555
N6_6 C24_6 1_555 1_555
N7_6 C36_6 1_555 1_555
N8_6 C37_6 1_555 1_555
H10_6 C18_6 1_555 1_555
C19_6 C18_6 1_555 1_555
C20_6 C19_6 1_555 1_555
H11_6 C20_6 1_555 1_555
C22_6 C19_6 1_555 1_555
C23_6 N5_6 1_555 1_555
C24_6 S1_6 1_555 1_555
C25_6 S2_6 1_555 1_555
C26_6 C25_6 1_555 1_555
C27_6 C26_6 1_555 1_555
H13_6 C27_6 1_555 1_555
C28_6 C27_6 1_555 1_555
H14_6 C28_6 1_555 1_555
C29_6 N2_3 1_555 1_555
H15_6 C29_6 1_555 1_555
C30_6 C26_6 1_555 1_555
H16_6 C30_6 1_555 1_555
C31_6 N3_6 1_555 1_555
H17_6 C31_6 1_555 1_555
C32_6 C31_6 1_555 1_555
H18_6 C32_6 1_555 1_555
C33_6 C32_6 1_555 1_555
C34_6 C33_6 1_555 1_555
H19_6 C34_6 1_555 1_555
C35_6 N3_6 1_555 1_555
H20_6 C35_6 1_555 1_555
C36_6 C33_6 1_555 1_555
C37_6 S3_6 1_555 1_555
C38_6 N7_6 1_555 1_555
C39_6 S4_6 1_555 1_555
C40_6 C39_6 1_555 1_555
C41_6 C40_6 1_555 1_555
H21_6 C41_6 1_555 1_555
C42_6 C41_6 1_555 1_555
H22_6 C42_6 1_555 1_555
C43_6 N4_3 1_555 1_555
H23_6 C43_6 1_555 1_555
C44_6 C40_6 1_555 1_555
H24_6 C44_6 1_555 1_555
Cu3_2 N2_3 1_555 1_555
Cu5_2 N4_3 1_555 1_555
N6_6 C25_6 1_555 1_555
N8_6 C39_6 1_555 1_555
C23_6 C24_6 1_555 1_555
C29_6 C30_6 1_555 1_555
C34_6 C35_6 1_555 1_555
C37_6 C38_6 1_555 1_555
C43_6 C44_6 1_555 1_555
Cu3_2 O1_6 1_555 1_555
Cu5_2 O2_6 1_555 1_555
O1_6 C1_6 1_555 1_555
O2_6 C1_6 1_555 1_555
O5_6 Cu3_2 1_555 1_555
O6_6 Cu5_2 1_555 1_555
O7_4 C16_6 1_555 1_555
O8_4 C16_6 1_555 1_555
N1_6 Cu3_2 1_555 1_555
C1_6 C2_6 1_555 1_555
C2_6 C3_6 1_555 1_555
C3_6 H1_6 1_555 1_555
C4_6 C3_6 1_555 1_555
H2_6 C4_6 1_555 1_555
C7_6 C2_6 1_555 1_555
H4_6 C7_6 1_555 1_555
C9_6 O5_6 1_555 1_555
C10_6 C9_6 1_555 1_555
C11_6 C10_6 1_555 1_555
H5_6 C11_6 1_555 1_555
C12_6 C11_6 1_555 1_555
H6_6 C12_6 1_555 1_555
C13_6 C12_6 1_555 1_555
C14_6 C13_6 1_555 1_555
H7_6 C14_6 1_555 1_555
C15_6 C10_6 1_555 1_555
H8_6 C15_6 1_555 1_555
C16_6 C13_6 1_555 1_555
C17_6 N1_6 1_555 1_555
H9_6 C17_6 1_555 1_555
C21_6 N1_6 1_555 1_555
H12_6 C21_6 1_555 1_555
Cu4_4 O7_4 1_555 1_555
O9_4 Cu5_2 1_555 1_555
O10_4 Cu5_2 1_555 1_555
O11_4 Cu3_2 1_555 1_555
O12_4 Cu3_2 1_555 1_555
O6_6 C9_6 1_555 1_555
O8_4 Cu4_4 1_555 1_555
C14_6 C15_6 1_555 1_555
O3_4 C8_6 1_555 1_555
O4_4 C8_6 1_555 1_555
C6_6 C5_6 1_555 1_555
H3_6 C6_6 1_555 1_555
C8_6 C5_6 1_555 1_555
Cu6_4 O3_4 1_555 1_555
O4_4 Cu6_4 1_555 1_555
O9_4 C8_7 1_555 1_555
O10_4 C8_7 1_555 1_555
C6_7 C5_7 1_555 1_555
H3_7 C6_7 1_555 1_555
C8_7 C5_7 1_555 1_555
S1_7 C22_7 1_555 1_555
N2_4 C28_7 1_555 1_555
N5_7 C22_7 1_555 1_555
N6_7 C24_7 1_555 1_555
C19_7 C18_7 1_555 1_555
C20_7 C19_7 1_555 1_555
H11_7 C20_7 1_555 1_555
C22_7 C19_7 1_555 1_555
C23_7 N5_7 1_555 1_555
C24_7 S1_7 1_555 1_555
C26_7 C25_7 1_555 1_555
C27_7 C26_7 1_555 1_555
C28_7 C27_7 1_555 1_555
C29_7 N2_4 1_555 1_555
H15_7 C29_7 1_555 1_555
C30_7 C26_7 1_555 1_555
H16_7 C30_7 1_555 1_555
Cu4_3 N2_4 1_555 1_555
N6_7 C25_7 1_555 1_555
C23_7 C24_7 1_555 1_555
C29_7 C30_7 1_555 1_555
S3_7 C36_7 1_555 1_555
S4_7 C38_7 1_555 1_555
N4_4 C42_7 1_555 1_555
N7_7 C36_7 1_555 1_555
N8_7 C37_7 1_555 1_555
C31_7 N3_7 1_555 1_555
H17_7 C31_7 1_555 1_555
C32_7 C31_7 1_555 1_555
H18_7 C32_7 1_555 1_555
C33_7 C32_7 1_555 1_555
C34_7 C33_7 1_555 1_555
H19_7 C34_7 1_555 1_555
C35_7 N3_7 1_555 1_555
H20_7 C35_7 1_555 1_555
C36_7 C33_7 1_555 1_555
C37_7 S3_7 1_555 1_555
C38_7 N7_7 1_555 1_555
C39_7 S4_7 1_555 1_555
C40_7 C39_7 1_555 1_555
C41_7 C40_7 1_555 1_555
H21_7 C41_7 1_555 1_555
C42_7 C41_7 1_555 1_555
H22_7 C42_7 1_555 1_555
C43_7 N4_4 1_555 1_555
H23_7 C43_7 1_555 1_555
C44_7 C40_7 1_555 1_555
H24_7 C44_7 1_555 1_555
Cu6_4 N4_4 1_555 1_555
N8_7 C39_7 1_555 1_555
C34_7 C35_7 1_555 1_555
C37_7 C38_7 1_555 1_555
C43_7 C44_7 1_555 1_555
Cu4_3 O1_7 1_555 1_555
O1_7 C1_7 1_555 1_555
N1_7 Cu4_3 1_555 1_555
C1_7 C2_7 1_555 1_555
C2_7 C3_7 1_555 1_555
C3_7 H1_7 1_555 1_555
C4_7 C3_7 1_555 1_555
H2_7 C4_7 1_555 1_555
C7_7 C2_7 1_555 1_555
H4_7 C7_7 1_555 1_555
C17_7 N1_7 1_555 1_555
C21_7 N1_7 1_555 1_555
H12_7 C21_7 1_555 1_555
Cu6_4 O2_7 1_555 1_555
O6_7 Cu6_4 1_555 1_555
O11_3 C16_7 1_555 1_555
O12_3 C16_7 1_555 1_555
C9_7 O5_7 1_555 1_555
C10_7 C9_7 1_555 1_555
C11_7 C10_7 1_555 1_555
H5_7 C11_7 1_555 1_555
C12_7 C11_7 1_555 1_555
H6_7 C12_7 1_555 1_555
C13_7 C12_7 1_555 1_555
C14_7 C13_7 1_555 1_555
H7_7 C14_7 1_555 1_555
C15_7 C10_7 1_555 1_555
H8_7 C15_7 1_555 1_555
C16_7 C13_7 1_555 1_555
O6_7 C9_7 1_555 1_555
C14_7 C15_7 1_555 1_555
Cu4_4 O1_8 1_555 1_555
S1_8 C22_8 1_555 1_555
O1_8 C1_8 1_555 1_555
O9_3 C8_8 1_555 1_555
O10_3 C8_8 1_555 1_555
N1_8 Cu4_4 1_555 1_555
N5_8 C22_8 1_555 1_555
N6_8 C24_8 1_555 1_555
C1_8 C2_8 1_555 1_555
C2_8 C3_8 1_555 1_555
C3_8 H1_8 1_555 1_555
C4_8 C3_8 1_555 1_555
H2_8 C4_8 1_555 1_555
C5_8 C4_8 1_555 1_555
C6_8 C5_8 1_555 1_555
H3_8 C6_8 1_555 1_555
C7_8 C2_8 1_555 1_555
H4_8 C7_8 1_555 1_555
C8_8 C5_8 1_555 1_555
C17_8 N1_8 1_555 1_555
C18_8 C17_8 1_555 1_555
C19_8 C18_8 1_555 1_555
C20_8 C19_8 1_555 1_555
H11_8 C20_8 1_555 1_555
C21_8 N1_8 1_555 1_555
H12_8 C21_8 1_555 1_555
C22_8 C19_8 1_555 1_555
C23_8 N5_8 1_555 1_555
C24_8 S1_8 1_555 1_555
N9_4 Cu4_4 1_555 1_555
N6_8 C25_8 1_555 1_555
C6_8 C7_8 1_555 1_555
C20_8 C21_8 1_555 1_555
C23_8 C24_8 1_555 1_555
Cu6_3 O2_8 1_555 1_555
S3_8 C36_8 1_555 1_555
S4_8 C38_8 1_555 1_555
O6_8 Cu6_3 1_555 1_555
O11_4 C16_8 1_555 1_555
O12_4 C16_8 1_555 1_555
N3_8 Cu6_3 1_555 1_555
N7_8 C36_8 1_555 1_555
N8_8 C37_8 1_555 1_555
C9_8 O5_8 1_555 1_555
C10_8 C9_8 1_555 1_555
C11_8 C10_8 1_555 1_555
H5_8 C11_8 1_555 1_555
C12_8 C11_8 1_555 1_555
H6_8 C12_8 1_555 1_555
C13_8 C12_8 1_555 1_555
C14_8 C13_8 1_555 1_555
H7_8 C14_8 1_555 1_555
C15_8 C10_8 1_555 1_555
H8_8 C15_8 1_555 1_555
C16_8 C13_8 1_555 1_555
C31_8 N3_8 1_555 1_555
H17_8 C31_8 1_555 1_555
C32_8 C31_8 1_555 1_555
H18_8 C32_8 1_555 1_555
C33_8 C32_8 1_555 1_555
C34_8 C33_8 1_555 1_555
H19_8 C34_8 1_555 1_555
C35_8 N3_8 1_555 1_555
H20_8 C35_8 1_555 1_555
C36_8 C33_8 1_555 1_555
C37_8 S3_8 1_555 1_555
C38_8 N7_8 1_555 1_555
N10_4 Cu6_3 1_555 1_555
O6_8 C9_8 1_555 1_555
C14_8 C15_8 1_555 1_555
C34_8 C35_8 1_555 1_555
C37_8 C38_8 1_555 1_555
N9_4 C28_8 1_555 1_555
C27_8 C26_8 1_555 1_555
C28_8 C27_8 1_555 1_555
C29_8 N9_4 1_555 1_555
H15_8 C29_8 1_555 1_555
C30_8 C26_8 1_555 1_555
H16_8 C30_8 1_555 1_555
C29_8 C30_8 1_555 1_555
N10_4 C42_8 1_555 1_555
C40_8 C39_8 1_555 1_555
C41_8 C40_8 1_555 1_555
H21_8 C41_8 1_555 1_555
C42_8 C41_8 1_555 1_555
H22_8 C42_8 1_555 1_555
C43_8 N10_4 1_555 1_555
H23_8 C43_8 1_555 1_555
C44_8 C40_8 1_555 1_555
H24_8 C44_8 1_555 1_555
C43_8 C44_8 1_555 1_555

#END
