
###############################################################################
#
# This file contains modified crystal structure data generated from the
# MOF subset of the Cambridge Structural Database (CSD) v542 
# hosted by the Cambridge Crystallographic Data Centre (CCDC).
#
# This work is licensed under the Creative Commons
# Attribution-NonCommercial-ShareAlike 4.0 International License.
# To view a copy of this license, visit
# http://creativecommons.org/licenses/by-nc-sa/4.0/
# or send a letter to
# Creative Commons, PO Box 1866, Mountain View, CA 94042, USA.
#
# CIF created using the CSD Python API on 22 February 2021
# The structure has been converted into the P1 space group
# The structure has a 3D framework
# The original CSD entry ZORJUO is in the orthorhombic crystal system
# The framework has been calculated to contain at least 10.0% void space
# The void calculation uses a probe of radius 1.32A, grid spacing 0.4
#
###############################################################################

data_ZORJUO
_chemical_formula_moiety         '(C216 H136 O52 Zn8)n'
_symmetry_cell_setting           triclinic
_symmetry_space_group_name_H-M   'P 1'
_symmetry_Int_Tables_number      1
_space_group_name_Hall           'P 1'
loop_
_symmetry_equiv_pos_site_id
_symmetry_equiv_pos_as_xyz
1 x,y,z
_cell_length_a                   17.1562(4)
_cell_length_b                   23.9325(8)
_cell_length_c                   23.5795(7)
_cell_angle_alpha                90
_cell_angle_beta                 90
_cell_angle_gamma                90
_cell_volume                     9681.52
loop_
_atom_site_label
_atom_site_type_symbol
_atom_site_fract_x
_atom_site_fract_y
_atom_site_fract_z
Zn2 Zn 0.00179(2) 0.32845(2) 0.39471(2)
Zn3 Zn 0.00179(2) 0.17155(2) 0.39471(2)
O17 O 0.00007(13) 0.37231(11) 0.32447(10)
O18 O 0.00007(13) 0.12769(11) 0.32447(10)
O19 O 0.1030(3) 0.3333(2) 0.4284(2)
O20 O 0.1030(3) 0.1667(2) 0.4284(2)
Zn1 Zn 0.88777(3) 0.250000 0.32037(2)
O1 O 0.99313(14) 0.250000 0.36476(14)
O2 O 0.56697(14) 0.68601(10) 0.76952(9)
O3 O 0.49993(13) 0.62769(11) 0.82447(10)
O4 O 0.90804(12) 0.34293(12) 0.43882(10)
O5 O 0.83307(13) 0.31233(12) 0.36947(11)
O6 O 0.78976(18) 0.250000 0.27039(13)
C1 C 0.84309(19) 0.33667(16) 0.41507(15)
C2 C 0.53098(19) 0.64113(15) 0.77908(15)
C3 C 0.52445(19) 0.59976(15) 0.73153(14)
C4 C 0.51371(17) 0.52187(16) 0.64452(15)
C5 C 0.77250(19) 0.35990(17) 0.44300(15)
C6 C 0.56973(19) 0.60575(16) 0.68460(15)
H3 H 0.603134 0.636174 0.681260
C7 C 0.57255(18) 0.46034(17) 0.57094(15)
H4 H 0.621400 0.471474 0.583773
C8 C 0.50746(17) 0.48093(18) 0.59686(16)
C9 C 0.43389(18) 0.46233(17) 0.57894(15)
H5 H 0.389410 0.475108 0.597371
C10 C 0.56577(19) 0.56638(17) 0.64200(15)
H6 H 0.598681 0.569662 0.610839
C11 C 0.42665(18) 0.42543(18) 0.53445(16)
C12 C 0.4739(2) 0.55452(17) 0.73510(16)
H7 H 0.443839 0.549686 0.767551
C13 C 0.63895(19) 0.40175(17) 0.49713(16)
C14 C 0.3478(2) 0.4095(2) 0.51331(16)
C15 C 0.4677(2) 0.51669(17) 0.69119(16)
H8 H 0.431884 0.487585 0.693498
C16 C 0.56761(19) 0.42330(18) 0.52603(16)
C17 C 0.49377(18) 0.40563(18) 0.50860(17)
H9 H 0.489564 0.380063 0.479055
C18 C 0.7755(2) 0.3762(2) 0.49917(16)
H10 H 0.822103 0.374307 0.519187
C19 C 0.7038(2) 0.36645(18) 0.41563(16)
H11 H 0.700862 0.355990 0.377711
C20 C 0.6382(2) 0.38780(18) 0.44109(16)
H12 H 0.593002 0.392757 0.419925
C21 C 0.7085(2) 0.3955(2) 0.52541(17)
H13 H 0.710618 0.404608 0.563723
C22 C 0.2889(2) 0.4490(2) 0.51217(18)
H14 H 0.298970 0.484456 0.526527
C23 C 0.2535(4) 0.3478(3) 0.46892(19)
H15 H 0.240195 0.313406 0.453434
C24 C 0.1990(3) 0.3901(3) 0.4707(2)
C25 C 0.3327(3) 0.3568(2) 0.49125(19)
H16 H 0.370317 0.328784 0.490644
C26 C 0.2172(2) 0.4379(3) 0.4909(2)
H17 H 0.179869 0.466118 0.491040
C27 C 0.1159(4) 0.3749(4) 0.4432(3)
O8 O 0.0692(2) 0.4169(3) 0.4426(3)
O11 O 0.90804(12) 0.15707(12) 0.43882(10)
O12 O 0.83307(13) 0.18767(12) 0.36947(11)
C28 C 0.84309(19) 0.16333(16) 0.41507(15)
C32 C 0.77250(19) 0.14010(17) 0.44300(15)
C34 C 0.57255(18) 0.03966(17) 0.57094(15)
H21 H 0.621400 0.028526 0.583773
C35 C 0.50746(17) 0.01907(18) 0.59686(16)
C36 C 0.43389(18) 0.03767(17) 0.57894(15)
H22 H 0.389410 0.024892 0.597371
C38 C 0.42665(18) 0.07457(18) 0.53445(16)
C40 C 0.63895(19) 0.09825(17) 0.49713(16)
C41 C 0.3478(2) 0.0905(2) 0.51331(16)
H25 H 0.431884 0.012415 0.693498
C43 C 0.56761(19) 0.07670(18) 0.52603(16)
C44 C 0.49377(18) 0.09437(18) 0.50860(17)
H26 H 0.489564 0.119937 0.479055
C45 C 0.7755(2) 0.1238(2) 0.49917(16)
H27 H 0.822103 0.125693 0.519187
C46 C 0.7038(2) 0.13355(18) 0.41563(16)
H28 H 0.700862 0.144010 0.377711
C47 C 0.6382(2) 0.11220(18) 0.44109(16)
H29 H 0.593002 0.107243 0.419925
C48 C 0.7085(2) 0.1045(2) 0.52541(17)
H30 H 0.710618 0.095392 0.563723
C49 C 0.2889(2) 0.0510(2) 0.51217(18)
H31 H 0.298970 0.015544 0.526527
C50 C 0.2535(4) 0.1522(3) 0.46892(19)
H32 H 0.240195 0.186594 0.453434
C51 C 0.1990(3) 0.1099(3) 0.4707(2)
C52 C 0.3327(3) 0.1432(2) 0.49125(19)
H33 H 0.370317 0.171216 0.490644
C53 C 0.2172(2) 0.0621(3) 0.4909(2)
H34 H 0.179869 0.033882 0.491040
C54 C 0.1159(4) 0.1251(4) 0.4432(3)
O14 O 0.0692(2) 0.0831(3) 0.4426(3)
Zn5 Zn 0.61223(3) 0.750000 0.82037(2)
Zn7 Zn 0.49821(2) 0.67155(2) 0.89471(2)
O15 O 0.93303(14) 0.31399(10) 0.26952(9)
O16 O 0.93303(14) 0.18601(10) 0.26952(9)
O9 O 0.56697(14) 0.81399(10) 0.76952(9)
O10 O 0.49993(13) 0.87231(11) 0.82447(10)
C29 C 0.53098(19) 0.85887(15) 0.77908(15)
C30 C 0.52445(19) 0.90024(15) 0.73153(14)
C31 C 0.51371(17) 0.97813(16) 0.64452(15)
C33 C 0.56973(19) 0.89425(16) 0.68460(15)
H20 H 0.603134 0.863826 0.681260
C37 C 0.56577(19) 0.93362(17) 0.64200(15)
H23 H 0.598681 0.930338 0.610839
C39 C 0.4739(2) 0.94548(17) 0.73510(16)
H24 H 0.443839 0.950314 0.767551
C42 C 0.4677(2) 0.98331(17) 0.69119(16)
Zn9 Zn 0.49821(2) 0.82845(2) 0.89471(2)
C39_2 C 0.0261(2) 0.05452(17) 0.23510(16)
H24_2 H 0.056161 0.049686 0.267551
C42_2 C 0.0323(2) 0.01669(17) 0.19119(16)
C9_2 C 0.06611(18) 0.53767(17) 0.07894(15)
H5_2 H 0.110590 0.524892 0.097371
C11_2 C 0.07335(18) 0.57457(18) 0.03445(16)
C12_2 C 0.0261(2) 0.44548(17) 0.23510(16)
H7_2 H 0.056161 0.450314 0.267551
C14_2 C 0.1522(2) 0.5905(2) 0.01331(16)
C15_2 C 0.0323(2) 0.48331(17) 0.19119(16)
H8_2 H 0.068116 0.512415 0.193498
C17_2 C 0.00623(18) 0.59437(18) 0.00860(17)
C22_2 C 0.2111(2) 0.5510(2) 0.01217(18)
H14_2 H 0.201030 0.515544 0.026527
C36_2 C 0.06611(18) 0.96233(17) 0.07894(15)
H22_2 H 0.110590 0.975108 0.097371
C38_2 C 0.07335(18) 0.92543(18) 0.03445(16)
C41_2 C 0.1522(2) 0.9095(2) 0.01331(16)
H25_2 H 0.068116 0.987585 0.193498
C44_2 C 0.00623(18) 0.90563(18) 0.00860(17)
C49_2 C 0.2111(2) 0.9490(2) 0.01217(18)
H31_2 H 0.201030 0.984456 0.026527
O7 O 0.3970(3) 0.6667(2) 0.9284(2)
H9_2 H 0.010436 0.619937 0.979055
C23_2 C 0.2465(4) 0.6522(3) 0.96892(19)
H15_2 H 0.259805 0.686594 0.953434
C24_2 C 0.3010(3) 0.6099(3) 0.9707(2)
C25_2 C 0.1673(3) 0.6432(2) 0.99125(19)
H16_2 H 0.129683 0.671216 0.990644
C26_2 C 0.2828(2) 0.5621(3) 0.9909(2)
H17_2 H 0.320131 0.533882 0.991040
C27_2 C 0.3841(4) 0.6251(4) 0.9432(3)
O8_2 O 0.4308(2) 0.5831(3) 0.9426(3)
O13 O 0.3970(3) 0.8333(2) 0.9284(2)
H26_2 H 0.010436 0.880063 0.979055
C50_2 C 0.2465(4) 0.8478(3) 0.96892(19)
H32_2 H 0.259805 0.813406 0.953434
C51_2 C 0.3010(3) 0.8901(3) 0.9707(2)
C52_2 C 0.1673(3) 0.8568(2) 0.99125(19)
H33_2 H 0.129683 0.828784 0.990644
C53_2 C 0.2828(2) 0.9379(3) 0.9909(2)
H34_2 H 0.320131 0.966118 0.991040
C54_2 C 0.3841(4) 0.8749(4) 0.9432(3)
O14_2 O 0.4308(2) 0.9169(3) 0.9426(3)
C29_2 C 0.96902(19) 0.14113(15) 0.27908(15)
C30_2 C 0.97555(19) 0.09976(15) 0.23153(14)
C31_2 C 0.98629(17) 0.02187(16) 0.14452(15)
C33_2 C 0.93027(19) 0.10575(16) 0.18460(15)
H20_2 H 0.896866 0.136174 0.181260
C37_2 C 0.93423(19) 0.06638(17) 0.14200(15)
H23_2 H 0.901319 0.069662 0.110839
C2_2 C 0.96902(19) 0.35887(15) 0.27908(15)
C3_2 C 0.97555(19) 0.40024(15) 0.23153(14)
C4_2 C 0.98629(17) 0.47813(16) 0.14452(15)
C6_2 C 0.93027(19) 0.39425(16) 0.18460(15)
H3_2 H 0.896866 0.363826 0.181260
C7_2 C 0.92745(18) 0.53966(17) 0.07094(15)
H4_2 H 0.878600 0.528526 0.083773
C8_2 C 0.99254(17) 0.51907(18) 0.09686(16)
C10_2 C 0.93423(19) 0.43362(17) 0.14200(15)
H6_2 H 0.901319 0.430338 0.110839
C16_2 C 0.93239(19) 0.57670(18) 0.02603(16)
H10_2 H 0.677897 0.625693 0.019187
C21_2 C 0.7915(2) 0.6045(2) 0.02541(17)
H13_2 H 0.789382 0.595392 0.063723
C34_2 C 0.92745(18) 0.96034(17) 0.07094(15)
H21_2 H 0.878600 0.971474 0.083773
C35_2 C 0.99254(17) 0.98093(18) 0.09686(16)
C43_2 C 0.93239(19) 0.92330(18) 0.02603(16)
H27_2 H 0.677897 0.874307 0.019187
C48_2 C 0.7915(2) 0.8955(2) 0.02541(17)
H30_2 H 0.789382 0.904608 0.063723
O1_2 O 0.50687(14) 0.750000 0.86476(14)
O4_2 O 0.59196(12) 0.65707(12) 0.93882(10)
O5_2 O 0.66693(13) 0.68767(12) 0.86947(11)
O6_2 O 0.71024(18) 0.750000 0.77039(13)
C1_2 C 0.65691(19) 0.66333(16) 0.91507(15)
C5_2 C 0.72750(19) 0.64010(17) 0.94300(15)
C13_2 C 0.86105(19) 0.59825(17) 0.99713(16)
C18_2 C 0.7245(2) 0.6238(2) 0.99917(16)
C19_2 C 0.7962(2) 0.63355(18) 0.91563(16)
H11_2 H 0.799138 0.644010 0.877711
C20_2 C 0.8618(2) 0.61220(18) 0.94109(16)
H12_2 H 0.906998 0.607243 0.919925
O11_2 O 0.59196(12) 0.84293(12) 0.93882(10)
O12_2 O 0.66693(13) 0.81233(12) 0.86947(11)
C28_2 C 0.65691(19) 0.83667(16) 0.91507(15)
C32_2 C 0.72750(19) 0.85990(17) 0.94300(15)
C40_2 C 0.86105(19) 0.90175(17) 0.99713(16)
C45_2 C 0.7245(2) 0.8762(2) 0.99917(16)
C46_2 C 0.7962(2) 0.86645(18) 0.91563(16)
H28_2 H 0.799138 0.855990 0.877711
C47_2 C 0.8618(2) 0.88780(18) 0.94109(16)
H29_2 H 0.906998 0.892757 0.919925
O2_2 O 0.43303(14) 0.18601(10) 0.23048(9)
O3_2 O 0.50007(13) 0.12769(11) 0.17553(10)
C2_3 C 0.46902(19) 0.14113(15) 0.22092(15)
C3_3 C 0.47555(19) 0.09976(15) 0.26847(14)
C4_3 C 0.48629(17) 0.02187(16) 0.35548(15)
C6_3 C 0.43027(19) 0.10575(16) 0.31540(15)
H3_3 H 0.396866 0.136174 0.318740
C10_3 C 0.43423(19) 0.06638(17) 0.35800(15)
H6_3 H 0.401319 0.069662 0.389161
C12_3 C 0.5261(2) 0.05452(17) 0.26490(16)
H7_3 H 0.556161 0.049686 0.232449
C15_3 C 0.5323(2) 0.01669(17) 0.30881(16)
Zn5_2 Zn 0.38777(3) 0.250000 0.17963(2)
Zn7_2 Zn 0.50179(2) 0.17155(2) 0.10529(2)
Zn1_2 Zn 0.11223(3) 0.750000 0.67963(2)
O1_3 O 0.00687(14) 0.750000 0.63524(14)
O4_3 O 0.09196(12) 0.84293(12) 0.56118(10)
O5_3 O 0.16693(13) 0.81233(12) 0.63053(11)
O6_3 O 0.21024(18) 0.750000 0.72961(13)
C1_3 C 0.15691(19) 0.83667(16) 0.58493(15)
O7_2 O 0.8970(3) 0.8333(2) 0.5716(2)
C5_3 C 0.22750(19) 0.85990(17) 0.55700(15)
C7_3 C 0.42745(18) 0.96034(17) 0.42906(15)
H4_3 H 0.378600 0.971474 0.416227
C8_3 C 0.49254(17) 0.98093(18) 0.40314(16)
C9_3 C 0.56611(18) 0.96233(17) 0.42106(15)
H5_3 H 0.610590 0.975108 0.402629
C11_3 C 0.57335(18) 0.92543(18) 0.46555(16)
C13_3 C 0.36105(19) 0.90175(17) 0.50287(16)
C14_3 C 0.6522(2) 0.9095(2) 0.48669(16)
H8_3 H 0.568116 0.987585 0.306502
C16_3 C 0.43239(19) 0.92330(18) 0.47397(16)
C17_3 C 0.50623(18) 0.90563(18) 0.49140(17)
H9_3 H 0.510436 0.880063 0.520945
C18_3 C 0.2245(2) 0.8762(2) 0.50083(16)
H10_3 H 0.177897 0.874307 0.480813
C19_3 C 0.2962(2) 0.86645(18) 0.58437(16)
H11_3 H 0.299138 0.855990 0.622289
C20_3 C 0.3618(2) 0.88780(18) 0.55891(16)
H12_3 H 0.406998 0.892757 0.580075
C21_3 C 0.2915(2) 0.8955(2) 0.47459(17)
H13_3 H 0.289382 0.904608 0.436277
C22_3 C 0.7111(2) 0.9490(2) 0.48783(18)
H14_3 H 0.701030 0.984456 0.473473
C23_3 C 0.7465(4) 0.8478(3) 0.53108(19)
H15_3 H 0.759805 0.813406 0.546566
C24_3 C 0.8010(3) 0.8901(3) 0.5293(2)
C25_3 C 0.6673(3) 0.8568(2) 0.50875(19)
H16_3 H 0.629683 0.828784 0.509356
C26_3 C 0.7828(2) 0.9379(3) 0.5091(2)
H17_3 H 0.820131 0.966118 0.508960
C27_3 C 0.8841(4) 0.8749(4) 0.5568(3)
O8_3 O 0.9308(2) 0.9169(3) 0.5574(3)
O9_2 O 0.43303(14) 0.31399(10) 0.23048(9)
O10_2 O 0.50007(13) 0.37231(11) 0.17553(10)
O11_3 O 0.09196(12) 0.65707(12) 0.56118(10)
O12_3 O 0.16693(13) 0.68767(12) 0.63053(11)
C28_3 C 0.15691(19) 0.66333(16) 0.58493(15)
C29_3 C 0.46902(19) 0.35887(15) 0.22092(15)
O13_2 O 0.8970(3) 0.6667(2) 0.5716(2)
C30_3 C 0.47555(19) 0.40024(15) 0.26847(14)
C31_3 C 0.48629(17) 0.47813(16) 0.35548(15)
C32_3 C 0.22750(19) 0.64010(17) 0.55700(15)
C33_3 C 0.43027(19) 0.39425(16) 0.31540(15)
H20_3 H 0.396866 0.363826 0.318740
C34_3 C 0.42745(18) 0.53966(17) 0.42906(15)
H21_3 H 0.378600 0.528526 0.416227
C35_3 C 0.49254(17) 0.51907(18) 0.40314(16)
C36_3 C 0.56611(18) 0.53767(17) 0.42106(15)
H22_3 H 0.610590 0.524892 0.402629
C37_3 C 0.43423(19) 0.43362(17) 0.35800(15)
H23_3 H 0.401319 0.430338 0.389161
C38_3 C 0.57335(18) 0.57457(18) 0.46555(16)
C39_3 C 0.5261(2) 0.44548(17) 0.26490(16)
H24_3 H 0.556161 0.450314 0.232449
C40_3 C 0.36105(19) 0.59825(17) 0.50287(16)
C41_3 C 0.6522(2) 0.5905(2) 0.48669(16)
C42_3 C 0.5323(2) 0.48331(17) 0.30881(16)
H25_3 H 0.568116 0.512415 0.306502
C43_3 C 0.43239(19) 0.57670(18) 0.47397(16)
C44_3 C 0.50623(18) 0.59437(18) 0.49140(17)
H26_3 H 0.510436 0.619937 0.520945
C45_3 C 0.2245(2) 0.6238(2) 0.50083(16)
H27_3 H 0.177897 0.625693 0.480813
C46_3 C 0.2962(2) 0.63355(18) 0.58437(16)
H28_3 H 0.299138 0.644010 0.622289
C47_3 C 0.3618(2) 0.61220(18) 0.55891(16)
H29_3 H 0.406998 0.607243 0.580075
C48_3 C 0.2915(2) 0.6045(2) 0.47459(17)
H30_3 H 0.289382 0.595392 0.436277
C49_3 C 0.7111(2) 0.5510(2) 0.48783(18)
H31_3 H 0.701030 0.515544 0.473473
C50_3 C 0.7465(4) 0.6522(3) 0.53108(19)
H32_3 H 0.759805 0.686594 0.546566
C51_3 C 0.8010(3) 0.6099(3) 0.5293(2)
C52_3 C 0.6673(3) 0.6432(2) 0.50875(19)
H33_3 H 0.629683 0.671216 0.509356
C53_3 C 0.7828(2) 0.5621(3) 0.5091(2)
H34_3 H 0.820131 0.533882 0.508960
C54_3 C 0.8841(4) 0.6251(4) 0.5568(3)
O14_3 O 0.9308(2) 0.5831(3) 0.5574(3)
Zn6 Zn 0.99821(2) 0.82845(2) 0.60529(2)
Zn8 Zn 0.99821(2) 0.67155(2) 0.60529(2)
Zn9_2 Zn 0.50179(2) 0.32845(2) 0.10529(2)
O15_2 O 0.06697(14) 0.81399(10) 0.73048(9)
O16_2 O 0.06697(14) 0.68601(10) 0.73048(9)
O17_2 O 0.99993(13) 0.87231(11) 0.67553(10)
O18_2 O 0.99993(13) 0.62769(11) 0.67553(10)
O1_4 O 0.49313(14) 0.250000 0.13524(14)
O4_4 O 0.40804(12) 0.15707(12) 0.06118(10)
O5_4 O 0.33307(13) 0.18767(12) 0.13053(11)
O6_4 O 0.28976(18) 0.250000 0.22961(13)
C1_4 C 0.34309(19) 0.16333(16) 0.08493(15)
C5_4 C 0.27250(19) 0.14010(17) 0.05700(15)
C13_4 C 0.13895(19) 0.09825(17) 0.00287(16)
C18_4 C 0.2755(2) 0.1238(2) 0.00083(16)
C19_4 C 0.2038(2) 0.13355(18) 0.08437(16)
H11_4 H 0.200862 0.144010 0.122289
C20_4 C 0.1382(2) 0.11220(18) 0.05891(16)
H12_4 H 0.093002 0.107243 0.080075
O11_4 O 0.40804(12) 0.34293(12) 0.06118(10)
O12_4 O 0.33307(13) 0.31233(12) 0.13053(11)
C28_4 C 0.34309(19) 0.33667(16) 0.08493(15)
C32_4 C 0.27250(19) 0.35990(17) 0.05700(15)
C40_4 C 0.13895(19) 0.40175(17) 0.00287(16)
C45_4 C 0.2755(2) 0.3762(2) 0.00083(16)
C46_4 C 0.2038(2) 0.36645(18) 0.08437(16)
H28_4 H 0.200862 0.355990 0.122289
C47_4 C 0.1382(2) 0.38780(18) 0.05891(16)
H29_4 H 0.093002 0.392757 0.080075
O19_2 O 0.6030(3) 0.1667(2) 0.0716(2)
O20_2 O 0.6030(3) 0.3333(2) 0.0716(2)
C7_4 C 0.07255(18) 0.03966(17) 0.92906(15)
H4_4 H 0.121400 0.028526 0.916227
C8_4 C 0.00746(17) 0.01907(18) 0.90314(16)
C16_4 C 0.06761(19) 0.07670(18) 0.97397(16)
H10_4 H 0.322103 0.125693 0.980813
C21_4 C 0.2085(2) 0.1045(2) 0.97459(17)
H13_4 H 0.210618 0.095392 0.936277
C29_4 C 0.03098(19) 0.64113(15) 0.72092(15)
C30_4 C 0.02445(19) 0.59976(15) 0.76847(14)
C31_4 C 0.01371(17) 0.52187(16) 0.85548(15)
C33_4 C 0.06973(19) 0.60575(16) 0.81540(15)
H20_4 H 0.103134 0.636174 0.818740
C34_4 C 0.07255(18) 0.46034(17) 0.92906(15)
H21_4 H 0.121400 0.471474 0.916227
C35_4 C 0.00746(17) 0.48093(18) 0.90314(16)
C37_4 C 0.06577(19) 0.56638(17) 0.85800(15)
H23_4 H 0.098681 0.569662 0.889161
C43_4 C 0.06761(19) 0.42330(18) 0.97397(16)
H27_4 H 0.322103 0.374307 0.980813
C48_4 C 0.2085(2) 0.3955(2) 0.97459(17)
H30_4 H 0.210618 0.404608 0.936277
C2_4 C 0.03098(19) 0.85887(15) 0.72092(15)
C3_4 C 0.02445(19) 0.90024(15) 0.76847(14)
C4_4 C 0.01371(17) 0.97813(16) 0.85548(15)
C6_4 C 0.06973(19) 0.89425(16) 0.81540(15)
H3_4 H 0.103134 0.863826 0.818740
C10_4 C 0.06577(19) 0.93362(17) 0.85800(15)
H6_4 H 0.098681 0.930338 0.889161
H9_4 H 0.989564 0.119937 0.020945
C23_4 C 0.7535(4) 0.1522(3) 0.03108(19)
H15_4 H 0.740195 0.186594 0.046566
C24_4 C 0.6990(3) 0.1099(3) 0.0293(2)
C25_4 C 0.8327(3) 0.1432(2) 0.00875(19)
H16_4 H 0.870317 0.171216 0.009356
C26_4 C 0.7172(2) 0.0621(3) 0.0091(2)
H17_4 H 0.679869 0.033882 0.008960
C27_4 C 0.6159(4) 0.1251(4) 0.0568(3)
O8_4 O 0.5692(2) 0.0831(3) 0.0574(3)
H26_4 H 0.989564 0.380063 0.020945
C50_4 C 0.7535(4) 0.3478(3) 0.03108(19)
H32_4 H 0.740195 0.313406 0.046566
C51_4 C 0.6990(3) 0.3901(3) 0.0293(2)
C52_4 C 0.8327(3) 0.3568(2) 0.00875(19)
H33_4 H 0.870317 0.328784 0.009356
C53_4 C 0.7172(2) 0.4379(3) 0.0091(2)
H34_4 H 0.679869 0.466118 0.008960
C54_4 C 0.6159(4) 0.3749(4) 0.0568(3)
O14_4 O 0.5692(2) 0.4169(3) 0.0574(3)
C9_4 C 0.93389(18) 0.03767(17) 0.92106(15)
H5_4 H 0.889410 0.024892 0.902629
C11_4 C 0.92665(18) 0.07457(18) 0.96555(16)
C14_4 C 0.8478(2) 0.0905(2) 0.98669(16)
H8_4 H 0.931884 0.012415 0.806502
C17_4 C 0.99377(18) 0.09437(18) 0.99140(17)
C22_4 C 0.7889(2) 0.0510(2) 0.98783(18)
H14_4 H 0.798970 0.015544 0.973473
C36_4 C 0.93389(18) 0.46233(17) 0.92106(15)
H22_4 H 0.889410 0.475108 0.902629
C38_4 C 0.92665(18) 0.42543(18) 0.96555(16)
C39_4 C 0.9739(2) 0.55452(17) 0.76490(16)
H24_4 H 0.943839 0.549686 0.732449
C41_4 C 0.8478(2) 0.4095(2) 0.98669(16)
C42_4 C 0.9677(2) 0.51669(17) 0.80881(16)
H25_4 H 0.931884 0.487585 0.806502
C44_4 C 0.99377(18) 0.40563(18) 0.99140(17)
C49_4 C 0.7889(2) 0.4490(2) 0.98783(18)
H31_4 H 0.798970 0.484456 0.973473
C12_4 C 0.9739(2) 0.94548(17) 0.76490(16)
H7_4 H 0.943839 0.950314 0.732449
C15_4 C 0.9677(2) 0.98331(17) 0.80881(16)
loop_
_geom_bond_atom_site_label_1
_geom_bond_atom_site_label_2
_geom_bond_site_symmetry_1
_geom_bond_site_symmetry_2
O17 Zn2 1_555 1_555
O18 Zn3 1_555 1_555
O19 Zn2 1_555 1_555
O20 Zn3 1_555 1_555
Zn1 O1 1_555 1_555
O2 C2 1_555 1_555
O3 C2 1_555 1_555
O5 Zn1 1_555 1_555
O6 Zn1 1_555 1_555
C1 O4 1_555 1_555
C2 C3 1_555 1_555
O19 C27 1_555 1_555
C3 C6 1_555 1_555
C4 C8 1_555 1_555
C5 C1 1_555 1_555
C6 H3 1_555 1_555
C7 H4 1_555 1_555
C8 C7 1_555 1_555
C9 C8 1_555 1_555
H5 C9 1_555 1_555
C10 C4 1_555 1_555
H6 C10 1_555 1_555
C11 C9 1_555 1_555
C12 C3 1_555 1_555
H7 C12 1_555 1_555
C13 C16 1_555 1_555
C14 C11 1_555 1_555
C15 C4 1_555 1_555
H8 C15 1_555 1_555
C16 C7 1_555 1_555
C17 C11 1_555 1_555
H9 C17 1_555 1_555
C18 C5 1_555 1_555
H10 C18 1_555 1_555
C19 C5 1_555 1_555
H11 C19 1_555 1_555
C20 C13 1_555 1_555
H12 C20 1_555 1_555
C21 C13 1_555 1_555
H13 C21 1_555 1_555
C22 C14 1_555 1_555
H14 C22 1_555 1_555
C23 H15 1_555 1_555
C24 C23 1_555 1_555
C25 C14 1_555 1_555
H16 C25 1_555 1_555
C26 C22 1_555 1_555
H17 C26 1_555 1_555
C27 C24 1_555 1_555
O8 C27 1_555 1_555
O12 Zn1 1_555 1_555
C28 O11 1_555 1_555
O20 C54 1_555 1_555
C32 C28 1_555 1_555
C34 H21 1_555 1_555
C35 C34 1_555 1_555
C36 C35 1_555 1_555
H22 C36 1_555 1_555
C38 C36 1_555 1_555
C40 C43 1_555 1_555
C41 C38 1_555 1_555
C43 C34 1_555 1_555
C44 C38 1_555 1_555
H26 C44 1_555 1_555
C45 C32 1_555 1_555
H27 C45 1_555 1_555
C46 C32 1_555 1_555
H28 C46 1_555 1_555
C47 C40 1_555 1_555
H29 C47 1_555 1_555
C48 C40 1_555 1_555
H30 C48 1_555 1_555
C49 C41 1_555 1_555
H31 C49 1_555 1_555
C50 H32 1_555 1_555
C51 C50 1_555 1_555
C52 C41 1_555 1_555
H33 C52 1_555 1_555
C53 C49 1_555 1_555
H34 C53 1_555 1_555
C54 C51 1_555 1_555
O14 C54 1_555 1_555
Zn5 O2 1_555 1_555
Zn7 O3 1_555 1_555
O15 Zn1 1_555 1_555
O16 Zn1 1_555 1_555
O5 C1 1_555 1_555
C6 C10 1_555 1_555
C12 C15 1_555 1_555
C16 C17 1_555 1_555
C18 C21 1_555 1_555
C19 C20 1_555 1_555
C23 C25 1_555 1_555
C24 C26 1_555 1_555
O12 C28 1_555 1_555
C43 C44 1_555 1_555
C45 C48 1_555 1_555
C46 C47 1_555 1_555
C50 C52 1_555 1_555
C51 C53 1_555 1_555
O9 C29 1_555 1_555
O10 C29 1_555 1_555
C29 C30 1_555 1_555
C30 C33 1_555 1_555
C33 H20 1_555 1_555
C37 C31 1_555 1_555
H23 C37 1_555 1_555
C39 C30 1_555 1_555
H24 C39 1_555 1_555
C42 C31 1_555 1_555
Zn5 O9 1_555 1_555
Zn9 O10 1_555 1_555
C33 C37 1_555 1_555
C39 C42 1_555 1_555
H24_2 C39_2 1_555 1_555
C39_2 C42_2 1_555 1_555
H5_2 C9_2 1_555 1_555
C11_2 C9_2 1_555 1_555
H7_2 C12_2 1_555 1_555
C14_2 C11_2 1_555 1_555
H8_2 C15_2 1_555 1_555
C17_2 C11_2 1_555 1_555
C22_2 C14_2 1_555 1_555
H14_2 C22_2 1_555 1_555
H22_2 C36_2 1_555 1_555
C38_2 C36_2 1_555 1_555
C41_2 C38_2 1_555 1_555
C44_2 C38_2 1_555 1_555
C49_2 C41_2 1_555 1_555
H31_2 C49_2 1_555 1_555
C12_2 C15_2 1_555 1_555
O7 C27_2 1_555 1_555
C23_2 H15_2 1_555 1_555
C24_2 C23_2 1_555 1_555
H16_2 C25_2 1_555 1_555
H17_2 C26_2 1_555 1_555
C27_2 C24_2 1_555 1_555
O8_2 C27_2 1_555 1_555
O13 C54_2 1_555 1_555
C50_2 H32_2 1_555 1_555
C51_2 C50_2 1_555 1_555
H33_2 C52_2 1_555 1_555
H34_2 C53_2 1_555 1_555
C54_2 C51_2 1_555 1_555
O14_2 C54_2 1_555 1_555
Zn7 O7 1_555 1_555
Zn9 O13 1_555 1_555
C23_2 C25_2 1_555 1_555
C24_2 C26_2 1_555 1_555
C50_2 C52_2 1_555 1_555
C51_2 C53_2 1_555 1_555
O16 C29_2 1_555 1_555
C29_2 C30_2 1_555 1_555
C30_2 C33_2 1_555 1_555
C33_2 H20_2 1_555 1_555
C37_2 C31_2 1_555 1_555
H23_2 C37_2 1_555 1_555
C33_2 C37_2 1_555 1_555
O15 C2_2 1_555 1_555
C2_2 C3_2 1_555 1_555
C3_2 C6_2 1_555 1_555
C4_2 C8_2 1_555 1_555
C6_2 H3_2 1_555 1_555
C7_2 H4_2 1_555 1_555
C8_2 C7_2 1_555 1_555
C10_2 C4_2 1_555 1_555
H6_2 C10_2 1_555 1_555
C16_2 C7_2 1_555 1_555
H13_2 C21_2 1_555 1_555
C34_2 H21_2 1_555 1_555
C35_2 C34_2 1_555 1_555
C43_2 C34_2 1_555 1_555
H30_2 C48_2 1_555 1_555
C6_2 C10_2 1_555 1_555
Zn5 O1_2 1_555 1_555
Zn7 O1_2 1_555 1_555
O4_2 Zn7 1_555 1_555
O5_2 Zn5 1_555 1_555
O6_2 Zn5 1_555 1_555
C1_2 O4_2 1_555 1_555
C5_2 C1_2 1_555 1_555
C18_2 C5_2 1_555 1_555
C19_2 C5_2 1_555 1_555
H11_2 C19_2 1_555 1_555
C20_2 C13_2 1_555 1_555
H12_2 C20_2 1_555 1_555
Zn9 O1_2 1_555 1_555
O11_2 Zn9 1_555 1_555
O12_2 Zn5 1_555 1_555
C28_2 O11_2 1_555 1_555
C32_2 C28_2 1_555 1_555
C45_2 C32_2 1_555 1_555
C46_2 C32_2 1_555 1_555
H28_2 C46_2 1_555 1_555
C47_2 C40_2 1_555 1_555
H29_2 C47_2 1_555 1_555
O5_2 C1_2 1_555 1_555
C19_2 C20_2 1_555 1_555
O12_2 C28_2 1_555 1_555
C46_2 C47_2 1_555 1_555
O2_2 C2_3 1_555 1_555
O3_2 C2_3 1_555 1_555
C2_3 C3_3 1_555 1_555
C3_3 C6_3 1_555 1_555
C6_3 H3_3 1_555 1_555
C10_3 C4_3 1_555 1_555
H6_3 C10_3 1_555 1_555
C12_3 C3_3 1_555 1_555
H7_3 C12_3 1_555 1_555
C15_3 C4_3 1_555 1_555
Zn5_2 O2_2 1_555 1_555
Zn7_2 O3_2 1_555 1_555
C6_3 C10_3 1_555 1_555
C12_3 C15_3 1_555 1_555
Zn1_2 O1_3 1_555 1_555
O5_3 Zn1_2 1_555 1_555
O6_3 Zn1_2 1_555 1_555
C1_3 O4_3 1_555 1_555
O7_2 C27_3 1_555 1_555
C5_3 C1_3 1_555 1_555
C7_3 H4_3 1_555 1_555
C8_3 C7_3 1_555 1_555
C9_3 C8_3 1_555 1_555
H5_3 C9_3 1_555 1_555
C11_3 C9_3 1_555 1_555
C13_3 C16_3 1_555 1_555
C14_3 C11_3 1_555 1_555
C16_3 C7_3 1_555 1_555
C17_3 C11_3 1_555 1_555
H9_3 C17_3 1_555 1_555
C18_3 C5_3 1_555 1_555
H10_3 C18_3 1_555 1_555
C19_3 C5_3 1_555 1_555
H11_3 C19_3 1_555 1_555
C20_3 C13_3 1_555 1_555
H12_3 C20_3 1_555 1_555
C21_3 C13_3 1_555 1_555
H13_3 C21_3 1_555 1_555
C22_3 C14_3 1_555 1_555
H14_3 C22_3 1_555 1_555
C23_3 H15_3 1_555 1_555
C24_3 C23_3 1_555 1_555
C25_3 C14_3 1_555 1_555
H16_3 C25_3 1_555 1_555
C26_3 C22_3 1_555 1_555
H17_3 C26_3 1_555 1_555
C27_3 C24_3 1_555 1_555
O8_3 C27_3 1_555 1_555
O9_2 C29_3 1_555 1_555
O10_2 C29_3 1_555 1_555
O12_3 Zn1_2 1_555 1_555
C28_3 O11_3 1_555 1_555
C29_3 C30_3 1_555 1_555
O13_2 C54_3 1_555 1_555
C30_3 C33_3 1_555 1_555
C31_3 C35_3 1_555 1_555
C32_3 C28_3 1_555 1_555
C33_3 H20_3 1_555 1_555
C34_3 H21_3 1_555 1_555
C35_3 C34_3 1_555 1_555
C36_3 C35_3 1_555 1_555
H22_3 C36_3 1_555 1_555
C37_3 C31_3 1_555 1_555
H23_3 C37_3 1_555 1_555
C38_3 C36_3 1_555 1_555
C39_3 C30_3 1_555 1_555
H24_3 C39_3 1_555 1_555
C40_3 C43_3 1_555 1_555
C41_3 C38_3 1_555 1_555
C42_3 C31_3 1_555 1_555
H25_3 C42_3 1_555 1_555
C43_3 C34_3 1_555 1_555
C44_3 C38_3 1_555 1_555
H26_3 C44_3 1_555 1_555
C45_3 C32_3 1_555 1_555
H27_3 C45_3 1_555 1_555
C46_3 C32_3 1_555 1_555
H28_3 C46_3 1_555 1_555
C47_3 C40_3 1_555 1_555
H29_3 C47_3 1_555 1_555
C48_3 C40_3 1_555 1_555
H30_3 C48_3 1_555 1_555
C49_3 C41_3 1_555 1_555
H31_3 C49_3 1_555 1_555
C50_3 H32_3 1_555 1_555
C51_3 C50_3 1_555 1_555
C52_3 C41_3 1_555 1_555
H33_3 C52_3 1_555 1_555
C53_3 C49_3 1_555 1_555
H34_3 C53_3 1_555 1_555
C54_3 C51_3 1_555 1_555
O14_3 C54_3 1_555 1_555
Zn5_2 O9_2 1_555 1_555
Zn6 O7_2 1_555 1_555
Zn8 O13_2 1_555 1_555
Zn9_2 O10_2 1_555 1_555
O15_2 Zn1_2 1_555 1_555
O16_2 Zn1_2 1_555 1_555
O5_3 C1_3 1_555 1_555
C16_3 C17_3 1_555 1_555
C18_3 C21_3 1_555 1_555
C19_3 C20_3 1_555 1_555
C23_3 C25_3 1_555 1_555
C24_3 C26_3 1_555 1_555
O12_3 C28_3 1_555 1_555
C33_3 C37_3 1_555 1_555
C39_3 C42_3 1_555 1_555
C43_3 C44_3 1_555 1_555
C45_3 C48_3 1_555 1_555
C46_3 C47_3 1_555 1_555
C50_3 C52_3 1_555 1_555
C51_3 C53_3 1_555 1_555
O17_2 Zn6 1_555 1_555
O18_2 Zn8 1_555 1_555
Zn5_2 O1_4 1_555 1_555
Zn7_2 O1_4 1_555 1_555
O4_4 Zn7_2 1_555 1_555
O5_4 Zn5_2 1_555 1_555
O6_4 Zn5_2 1_555 1_555
C1_4 O4_4 1_555 1_555
C5_4 C1_4 1_555 1_555
C18_4 C5_4 1_555 1_555
C19_4 C5_4 1_555 1_555
H11_4 C19_4 1_555 1_555
C20_4 C13_4 1_555 1_555
H12_4 C20_4 1_555 1_555
Zn9_2 O1_4 1_555 1_555
O11_4 Zn9_2 1_555 1_555
O12_4 Zn5_2 1_555 1_555
C28_4 O11_4 1_555 1_555
C32_4 C28_4 1_555 1_555
C45_4 C32_4 1_555 1_555
C46_4 C32_4 1_555 1_555
H28_4 C46_4 1_555 1_555
C47_4 C40_4 1_555 1_555
H29_4 C47_4 1_555 1_555
O19_2 Zn7_2 1_555 1_555
O20_2 Zn9_2 1_555 1_555
O5_4 C1_4 1_555 1_555
C19_4 C20_4 1_555 1_555
O12_4 C28_4 1_555 1_555
C46_4 C47_4 1_555 1_555
C7_4 H4_4 1_555 1_555
C8_4 C7_4 1_555 1_555
C16_4 C7_4 1_555 1_555
H13_4 C21_4 1_555 1_555
O16_2 C29_4 1_555 1_555
C29_4 C30_4 1_555 1_555
C30_4 C33_4 1_555 1_555
C31_4 C35_4 1_555 1_555
C33_4 H20_4 1_555 1_555
C34_4 H21_4 1_555 1_555
C35_4 C34_4 1_555 1_555
C37_4 C31_4 1_555 1_555
H23_4 C37_4 1_555 1_555
C43_4 C34_4 1_555 1_555
H30_4 C48_4 1_555 1_555
C33_4 C37_4 1_555 1_555
O15_2 C2_4 1_555 1_555
C2_4 C3_4 1_555 1_555
C3_4 C6_4 1_555 1_555
C6_4 H3_4 1_555 1_555
C10_4 C4_4 1_555 1_555
H6_4 C10_4 1_555 1_555
C6_4 C10_4 1_555 1_555
O19_2 C27_4 1_555 1_555
C23_4 H15_4 1_555 1_555
C24_4 C23_4 1_555 1_555
H16_4 C25_4 1_555 1_555
H17_4 C26_4 1_555 1_555
C27_4 C24_4 1_555 1_555
O8_4 C27_4 1_555 1_555
O20_2 C54_4 1_555 1_555
C50_4 H32_4 1_555 1_555
C51_4 C50_4 1_555 1_555
H33_4 C52_4 1_555 1_555
H34_4 C53_4 1_555 1_555
C54_4 C51_4 1_555 1_555
O14_4 C54_4 1_555 1_555
C23_4 C25_4 1_555 1_555
C24_4 C26_4 1_555 1_555
C50_4 C52_4 1_555 1_555
C51_4 C53_4 1_555 1_555
H5_4 C9_4 1_555 1_555
C11_4 C9_4 1_555 1_555
C14_4 C11_4 1_555 1_555
C17_4 C11_4 1_555 1_555
C22_4 C14_4 1_555 1_555
H14_4 C22_4 1_555 1_555
H22_4 C36_4 1_555 1_555
C38_4 C36_4 1_555 1_555
H24_4 C39_4 1_555 1_555
C41_4 C38_4 1_555 1_555
H25_4 C42_4 1_555 1_555
C44_4 C38_4 1_555 1_555
C49_4 C41_4 1_555 1_555
H31_4 C49_4 1_555 1_555
C39_4 C42_4 1_555 1_555
H7_4 C12_4 1_555 1_555
C12_4 C15_4 1_555 1_555

#END
