data_IRMOF-1

_audit_creation_method RASPA-1.0
_audit_creation_date 2021-10-21
_audit_author_name 'George'

_citation_author_name        'M. Eddaoudi, J. Kim, N. Rosi, D. Vodak, J. Wachter, M. O. Keeffe, and O.M. Yaghi'
_citation_title              'Systematic design of pore size and functionality in isoreticular MOFs and their application in methane storage'
_citation_journal_abbrev     'Science'
_citation_journal_volume     295
_citation_page_first         469
_citation_page_last          472
_citation_year               2002

_cell_length_a    77.496
_cell_length_b    77.496
_cell_length_c    77.496
_cell_angle_alpha 90
_cell_angle_beta  90
_cell_angle_gamma 90
_cell_volume      465412

_symmetry_cell_setting          cubic
_symmetry_space_group_name_Hall 'P 1'
_symmetry_space_group_name_H-M  'P 1'
_symmetry_Int_Tables_number     1

_symmetry_equiv_pos_as_xyz 'x,y,z'

loop_
_atom_site_label
_atom_site_type_symbol
_atom_site_fract_x
_atom_site_fract_y
_atom_site_fract_z
_atom_site_charge
Zn1      Zn     0.097800000000     0.068866666667     0.068866666667     0          
O1       O      0.083333333333     0.083333333333     0.083333333333     0          
O2       O      0.093966666667     0.072700000000     0.044666666667     0          
C1       C      0.083333333333     0.083333333333     0.037100000000     0          
C2       C      0.083333333333     0.083333333333     0.017933333333     0          
C3       C      0.094300000000     0.072366666667     0.008966666667     0          
H1       H      0.101633333333     0.065033333333     0.014933333333     0          
Zn1      Zn     0.264466666667     0.097800000000     0.068866666667     0          
O1       O      0.250000000000     0.083333333333     0.083333333333     0          
O2       O      0.260633333333     0.093966666667     0.044666666667     0          
C1       C      0.250000000000     0.083333333333     0.037100000000     0          
C2       C      0.250000000000     0.083333333333     0.017933333333     0          
C3       C      0.260966666667     0.094300000000     0.008966666667     0          
H1       H      0.268300000000     0.101633333333     0.014933333333     0          
Zn1      Zn     0.235533333333     0.264466666667     0.068866666667     0          
O1       O      0.250000000000     0.250000000000     0.083333333333     0          
O2       O      0.239366666667     0.260633333333     0.044666666667     0          
C1       C      0.250000000000     0.250000000000     0.037100000000     0          
C2       C      0.250000000000     0.250000000000     0.017933333333     0          
C3       C      0.239033333333     0.260966666667     0.008966666667     0          
H1       H      0.231700000000     0.268300000000     0.014933333333     0          
Zn1      Zn     0.068866666667     0.235533333333     0.068866666667     0          
O1       O      0.083333333333     0.250000000000     0.083333333333     0          
O2       O      0.072700000000     0.239366666667     0.044666666667     0          
C1       C      0.083333333333     0.250000000000     0.037100000000     0          
C2       C      0.083333333333     0.250000000000     0.017933333333     0          
C3       C      0.072366666667     0.239033333333     0.008966666667     0          
H1       H      0.065033333333     0.231700000000     0.014933333333     0          
Zn1      Zn     0.097800000000     0.264466666667     0.264466666667     0          
O1       O      0.083333333333     0.250000000000     0.250000000000     0          
O2       O      0.093966666667     0.260633333333     0.288666666667     0          
C1       C      0.083333333333     0.250000000000     0.296233333333     0          
C2       C      0.083333333333     0.250000000000     0.315400000000     0          
C3       C      0.094300000000     0.260966666667     0.324366666667     0          
H1       H      0.101633333333     0.268300000000     0.318400000000     0          
Zn1      Zn     0.068866666667     0.097800000000     0.264466666667     0          
O1       O      0.083333333333     0.083333333333     0.250000000000     0          
O2       O      0.072700000000     0.093966666667     0.288666666667     0          
C1       C      0.083333333333     0.083333333333     0.296233333333     0          
C2       C      0.083333333333     0.083333333333     0.315400000000     0          
C3       C      0.072366666667     0.094300000000     0.324366666667     0          
H1       H      0.065033333333     0.101633333333     0.318400000000     0          
Zn1      Zn     0.235533333333     0.068866666667     0.264466666667     0          
O1       O      0.250000000000     0.083333333333     0.250000000000     0          
O2       O      0.239366666667     0.072700000000     0.288666666667     0          
C1       C      0.250000000000     0.083333333333     0.296233333333     0          
C2       C      0.250000000000     0.083333333333     0.315400000000     0          
C3       C      0.239033333333     0.072366666667     0.324366666667     0          
H1       H      0.231700000000     0.065033333333     0.318400000000     0          
Zn1      Zn     0.264466666667     0.235533333333     0.264466666667     0          
O1       O      0.250000000000     0.250000000000     0.250000000000     0          
O2       O      0.260633333333     0.239366666667     0.288666666667     0          
C1       C      0.250000000000     0.250000000000     0.296233333333     0          
C2       C      0.250000000000     0.250000000000     0.315400000000     0          
C3       C      0.260966666667     0.239033333333     0.324366666667     0          
H1       H      0.268300000000     0.231700000000     0.318400000000     0          
Zn1      Zn     0.068866666667     0.097800000000     0.068866666667     0          
O2       O      0.044666666667     0.093966666667     0.072700000000     0          
C1       C      0.037100000000     0.083333333333     0.083333333333     0          
C2       C      0.017933333333     0.083333333333     0.083333333333     0          
C3       C      0.008966666667     0.094300000000     0.072366666667     0          
H1       H      0.014933333333     0.101633333333     0.065033333333     0          
Zn1      Zn     0.235533333333     0.068866666667     0.068866666667     0          
O2       O      0.239366666667     0.044666666667     0.072700000000     0          
C1       C      0.250000000000     0.037100000000     0.083333333333     0          
C2       C      0.250000000000     0.017933333333     0.083333333333     0          
C3       C      0.239033333333     0.008966666667     0.072366666667     0          
H1       H      0.231700000000     0.014933333333     0.065033333333     0          
Zn1      Zn     0.264466666667     0.235533333333     0.068866666667     0          
O2       O      0.288666666667     0.239366666667     0.072700000000     0          
C1       C      0.296233333333     0.250000000000     0.083333333333     0          
C2       C      0.315400000000     0.250000000000     0.083333333333     0          
C3       C      0.324366666667     0.239033333333     0.072366666667     0          
H1       H      0.318400000000     0.231700000000     0.065033333333     0          
Zn1      Zn     0.097800000000     0.264466666667     0.068866666667     0          
O2       O      0.093966666667     0.288666666667     0.072700000000     0          
C1       C      0.083333333333     0.296233333333     0.083333333333     0          
C2       C      0.083333333333     0.315400000000     0.083333333333     0          
C3       C      0.094300000000     0.324366666667     0.072366666667     0          
H1       H      0.101633333333     0.318400000000     0.065033333333     0          
Zn1      Zn     0.068866666667     0.235533333333     0.264466666667     0          
O2       O      0.044666666667     0.239366666667     0.260633333333     0          
C1       C      0.037100000000     0.250000000000     0.250000000000     0          
C2       C      0.017933333333     0.250000000000     0.250000000000     0          
C3       C      0.008966666667     0.239033333333     0.260966666667     0          
H1       H      0.014933333333     0.231700000000     0.268300000000     0          
Zn1      Zn     0.097800000000     0.068866666667     0.264466666667     0          
O2       O      0.093966666667     0.044666666667     0.260633333333     0          
C1       C      0.083333333333     0.037100000000     0.250000000000     0          
C2       C      0.083333333333     0.017933333333     0.250000000000     0          
C3       C      0.094300000000     0.008966666667     0.260966666667     0          
H1       H      0.101633333333     0.014933333333     0.268300000000     0          
Zn1      Zn     0.264466666667     0.097800000000     0.264466666667     0          
O2       O      0.288666666667     0.093966666667     0.260633333333     0          
C1       C      0.296233333333     0.083333333333     0.250000000000     0          
C2       C      0.315400000000     0.083333333333     0.250000000000     0          
C3       C      0.324366666667     0.094300000000     0.260966666667     0          
H1       H      0.318400000000     0.101633333333     0.268300000000     0          
Zn1      Zn     0.235533333333     0.264466666667     0.264466666667     0          
O2       O      0.239366666667     0.288666666667     0.260633333333     0          
C1       C      0.250000000000     0.296233333333     0.250000000000     0          
C2       C      0.250000000000     0.315400000000     0.250000000000     0          
C3       C      0.239033333333     0.324366666667     0.260966666667     0          
H1       H      0.231700000000     0.318400000000     0.268300000000     0          
Zn1      Zn     0.068866666667     0.068866666667     0.097800000000     0          
O2       O      0.072700000000     0.044666666667     0.093966666667     0          
C1       C      0.083333333333     0.037100000000     0.083333333333     0          
C2       C      0.083333333333     0.017933333333     0.083333333333     0          
C3       C      0.072366666667     0.008966666667     0.094300000000     0          
H1       H      0.065033333333     0.014933333333     0.101633333333     0          
Zn1      Zn     0.068866666667     0.264466666667     0.235533333333     0          
O2       O      0.072700000000     0.288666666667     0.239366666667     0          
C1       C      0.083333333333     0.296233333333     0.250000000000     0          
C2       C      0.083333333333     0.315400000000     0.250000000000     0          
C3       C      0.072366666667     0.324366666667     0.239033333333     0          
H1       H      0.065033333333     0.318400000000     0.231700000000     0          
Zn1      Zn     0.068866666667     0.068866666667     0.235533333333     0          
O2       O      0.044666666667     0.072700000000     0.239366666667     0          
C1       C      0.037100000000     0.083333333333     0.250000000000     0          
C2       C      0.017933333333     0.083333333333     0.250000000000     0          
C3       C      0.008966666667     0.072366666667     0.239033333333     0          
H1       H      0.014933333333     0.065033333333     0.231700000000     0          
Zn1      Zn     0.264466666667     0.068866666667     0.235533333333     0          
O2       O      0.260633333333     0.044666666667     0.239366666667     0          
C1       C      0.250000000000     0.037100000000     0.250000000000     0          
C2       C      0.250000000000     0.017933333333     0.250000000000     0          
C3       C      0.260966666667     0.008966666667     0.239033333333     0          
H1       H      0.268300000000     0.014933333333     0.231700000000     0          
Zn1      Zn     0.264466666667     0.264466666667     0.235533333333     0          
O2       O      0.288666666667     0.260633333333     0.239366666667     0          
C1       C      0.296233333333     0.250000000000     0.250000000000     0          
C2       C      0.315400000000     0.250000000000     0.250000000000     0          
C3       C      0.324366666667     0.260966666667     0.239033333333     0          
H1       H      0.318400000000     0.268300000000     0.231700000000     0          
Zn1      Zn     0.264466666667     0.264466666667     0.097800000000     0          
O2       O      0.260633333333     0.288666666667     0.093966666667     0          
C1       C      0.250000000000     0.296233333333     0.083333333333     0          
C2       C      0.250000000000     0.315400000000     0.083333333333     0          
C3       C      0.260966666667     0.324366666667     0.094300000000     0          
H1       H      0.268300000000     0.318400000000     0.101633333333     0          
Zn1      Zn     0.068866666667     0.264466666667     0.097800000000     0          
O2       O      0.044666666667     0.260633333333     0.093966666667     0          
C1       C      0.037100000000     0.250000000000     0.083333333333     0          
C2       C      0.017933333333     0.250000000000     0.083333333333     0          
C3       C      0.008966666667     0.260966666667     0.094300000000     0          
H1       H      0.014933333333     0.268300000000     0.101633333333     0          
Zn1      Zn     0.264466666667     0.068866666667     0.097800000000     0          
O2       O      0.288666666667     0.072700000000     0.093966666667     0          
C1       C      0.296233333333     0.083333333333     0.083333333333     0          
C2       C      0.315400000000     0.083333333333     0.083333333333     0          
C3       C      0.324366666667     0.072366666667     0.094300000000     0          
H1       H      0.318400000000     0.065033333333     0.101633333333     0          
O2       O      0.239366666667     0.260633333333     0.288666666667     0          
C3       C      0.239033333333     0.260966666667     0.324366666667     0          
H1       H      0.231700000000     0.268300000000     0.318400000000     0          
O2       O      0.072700000000     0.239366666667     0.288666666667     0          
C3       C      0.072366666667     0.239033333333     0.324366666667     0          
H1       H      0.065033333333     0.231700000000     0.318400000000     0          
O2       O      0.093966666667     0.072700000000     0.288666666667     0          
C3       C      0.094300000000     0.072366666667     0.324366666667     0          
H1       H      0.101633333333     0.065033333333     0.318400000000     0          
O2       O      0.260633333333     0.093966666667     0.288666666667     0          
C3       C      0.260966666667     0.094300000000     0.324366666667     0          
H1       H      0.268300000000     0.101633333333     0.318400000000     0          
O2       O      0.239366666667     0.072700000000     0.044666666667     0          
C3       C      0.239033333333     0.072366666667     0.008966666667     0          
H1       H      0.231700000000     0.065033333333     0.014933333333     0          
O2       O      0.260633333333     0.239366666667     0.044666666667     0          
C3       C      0.260966666667     0.239033333333     0.008966666667     0          
H1       H      0.268300000000     0.231700000000     0.014933333333     0          
O2       O      0.093966666667     0.260633333333     0.044666666667     0          
C3       C      0.094300000000     0.260966666667     0.008966666667     0          
H1       H      0.101633333333     0.268300000000     0.014933333333     0          
O2       O      0.072700000000     0.093966666667     0.044666666667     0          
C3       C      0.072366666667     0.094300000000     0.008966666667     0          
H1       H      0.065033333333     0.101633333333     0.014933333333     0          
O2       O      0.288666666667     0.239366666667     0.260633333333     0          
C3       C      0.324366666667     0.239033333333     0.260966666667     0          
H1       H      0.318400000000     0.231700000000     0.268300000000     0          
O2       O      0.093966666667     0.288666666667     0.260633333333     0          
C3       C      0.094300000000     0.324366666667     0.260966666667     0          
H1       H      0.101633333333     0.318400000000     0.268300000000     0          
O2       O      0.044666666667     0.093966666667     0.260633333333     0          
C3       C      0.008966666667     0.094300000000     0.260966666667     0          
H1       H      0.014933333333     0.101633333333     0.268300000000     0          
O2       O      0.239366666667     0.044666666667     0.260633333333     0          
C3       C      0.239033333333     0.008966666667     0.260966666667     0          
H1       H      0.231700000000     0.014933333333     0.268300000000     0          
O2       O      0.288666666667     0.093966666667     0.072700000000     0          
C3       C      0.324366666667     0.094300000000     0.072366666667     0          
H1       H      0.318400000000     0.101633333333     0.065033333333     0          
O2       O      0.239366666667     0.288666666667     0.072700000000     0          
C3       C      0.239033333333     0.324366666667     0.072366666667     0          
H1       H      0.231700000000     0.318400000000     0.065033333333     0          
O2       O      0.044666666667     0.239366666667     0.072700000000     0          
C3       C      0.008966666667     0.239033333333     0.072366666667     0          
H1       H      0.014933333333     0.231700000000     0.065033333333     0          
O2       O      0.093966666667     0.044666666667     0.072700000000     0          
C3       C      0.094300000000     0.008966666667     0.072366666667     0          
H1       H      0.101633333333     0.014933333333     0.065033333333     0          
O2       O      0.260633333333     0.288666666667     0.239366666667     0          
C3       C      0.260966666667     0.324366666667     0.239033333333     0          
H1       H      0.268300000000     0.318400000000     0.231700000000     0          
O2       O      0.260633333333     0.044666666667     0.093966666667     0          
C3       C      0.260966666667     0.008966666667     0.094300000000     0          
H1       H      0.268300000000     0.014933333333     0.101633333333     0          
O2       O      0.288666666667     0.260633333333     0.093966666667     0          
C3       C      0.324366666667     0.260966666667     0.094300000000     0          
H1       H      0.318400000000     0.268300000000     0.101633333333     0          
O2       O      0.072700000000     0.288666666667     0.093966666667     0          
C3       C      0.072366666667     0.324366666667     0.094300000000     0          
H1       H      0.065033333333     0.318400000000     0.101633333333     0          
O2       O      0.044666666667     0.072700000000     0.093966666667     0          
C3       C      0.008966666667     0.072366666667     0.094300000000     0          
H1       H      0.014933333333     0.065033333333     0.101633333333     0          
O2       O      0.072700000000     0.044666666667     0.239366666667     0          
C3       C      0.072366666667     0.008966666667     0.239033333333     0          
H1       H      0.065033333333     0.014933333333     0.231700000000     0          
O2       O      0.288666666667     0.072700000000     0.239366666667     0          
C3       C      0.324366666667     0.072366666667     0.239033333333     0          
H1       H      0.318400000000     0.065033333333     0.231700000000     0          
O2       O      0.044666666667     0.260633333333     0.239366666667     0          
C3       C      0.008966666667     0.260966666667     0.239033333333     0          
H1       H      0.014933333333     0.268300000000     0.231700000000     0          
Zn1      Zn     0.097800000000     0.235533333333     0.235533333333     0          
O2       O      0.093966666667     0.239366666667     0.211333333333     0          
C1       C      0.083333333333     0.250000000000     0.203766666667     0          
C2       C      0.083333333333     0.250000000000     0.184600000000     0          
C3       C      0.094300000000     0.239033333333     0.175633333333     0          
H1       H      0.101633333333     0.231700000000     0.181600000000     0          
O2       O      0.260633333333     0.260633333333     0.211333333333     0          
C1       C      0.250000000000     0.250000000000     0.203766666667     0          
C2       C      0.250000000000     0.250000000000     0.184600000000     0          
C3       C      0.260966666667     0.260966666667     0.175633333333     0          
H1       H      0.268300000000     0.268300000000     0.181600000000     0          
Zn1      Zn     0.235533333333     0.097800000000     0.235533333333     0          
O2       O      0.239366666667     0.093966666667     0.211333333333     0          
C1       C      0.250000000000     0.083333333333     0.203766666667     0          
C2       C      0.250000000000     0.083333333333     0.184600000000     0          
C3       C      0.239033333333     0.094300000000     0.175633333333     0          
H1       H      0.231700000000     0.101633333333     0.181600000000     0          
O2       O      0.072700000000     0.072700000000     0.211333333333     0          
C1       C      0.083333333333     0.083333333333     0.203766666667     0          
C2       C      0.083333333333     0.083333333333     0.184600000000     0          
C3       C      0.072366666667     0.072366666667     0.175633333333     0          
H1       H      0.065033333333     0.065033333333     0.181600000000     0          
Zn1      Zn     0.097800000000     0.097800000000     0.097800000000     0          
O2       O      0.093966666667     0.093966666667     0.122000000000     0          
C1       C      0.083333333333     0.083333333333     0.129566666667     0          
C2       C      0.083333333333     0.083333333333     0.148733333333     0          
C3       C      0.094300000000     0.094300000000     0.157700000000     0          
H1       H      0.101633333333     0.101633333333     0.151733333333     0          
O2       O      0.072700000000     0.260633333333     0.122000000000     0          
C1       C      0.083333333333     0.250000000000     0.129566666667     0          
C2       C      0.083333333333     0.250000000000     0.148733333333     0          
C3       C      0.072366666667     0.260966666667     0.157700000000     0          
H1       H      0.065033333333     0.268300000000     0.151733333333     0          
Zn1      Zn     0.235533333333     0.235533333333     0.097800000000     0          
O2       O      0.239366666667     0.239366666667     0.122000000000     0          
C1       C      0.250000000000     0.250000000000     0.129566666667     0          
C2       C      0.250000000000     0.250000000000     0.148733333333     0          
C3       C      0.239033333333     0.239033333333     0.157700000000     0          
H1       H      0.231700000000     0.231700000000     0.151733333333     0          
O2       O      0.260633333333     0.072700000000     0.122000000000     0          
C1       C      0.250000000000     0.083333333333     0.129566666667     0          
C2       C      0.250000000000     0.083333333333     0.148733333333     0          
C3       C      0.260966666667     0.072366666667     0.157700000000     0          
H1       H      0.268300000000     0.065033333333     0.151733333333     0          
Zn1      Zn     0.235533333333     0.235533333333     0.235533333333     0          
O2       O      0.239366666667     0.211333333333     0.239366666667     0          
C1       C      0.250000000000     0.203766666667     0.250000000000     0          
C2       C      0.250000000000     0.184600000000     0.250000000000     0          
C3       C      0.239033333333     0.175633333333     0.239033333333     0          
H1       H      0.231700000000     0.181600000000     0.231700000000     0          
Zn1      Zn     0.097800000000     0.097800000000     0.235533333333     0          
O2       O      0.093966666667     0.122000000000     0.239366666667     0          
C1       C      0.083333333333     0.129566666667     0.250000000000     0          
C2       C      0.083333333333     0.148733333333     0.250000000000     0          
C3       C      0.094300000000     0.157700000000     0.239033333333     0          
H1       H      0.101633333333     0.151733333333     0.231700000000     0          
Zn1      Zn     0.097800000000     0.235533333333     0.097800000000     0          
O2       O      0.093966666667     0.211333333333     0.093966666667     0          
C1       C      0.083333333333     0.203766666667     0.083333333333     0          
C2       C      0.083333333333     0.184600000000     0.083333333333     0          
C3       C      0.094300000000     0.175633333333     0.094300000000     0          
H1       H      0.101633333333     0.181600000000     0.101633333333     0          
Zn1      Zn     0.235533333333     0.097800000000     0.097800000000     0          
O2       O      0.239366666667     0.122000000000     0.093966666667     0          
C1       C      0.250000000000     0.129566666667     0.083333333333     0          
C2       C      0.250000000000     0.148733333333     0.083333333333     0          
C3       C      0.239033333333     0.157700000000     0.094300000000     0          
H1       H      0.231700000000     0.151733333333     0.101633333333     0          
O2       O      0.072700000000     0.211333333333     0.260633333333     0          
C1       C      0.083333333333     0.203766666667     0.250000000000     0          
C2       C      0.083333333333     0.184600000000     0.250000000000     0          
C3       C      0.072366666667     0.175633333333     0.260966666667     0          
H1       H      0.065033333333     0.181600000000     0.268300000000     0          
O2       O      0.072700000000     0.122000000000     0.072700000000     0          
C1       C      0.083333333333     0.129566666667     0.083333333333     0          
C2       C      0.083333333333     0.148733333333     0.083333333333     0          
C3       C      0.072366666667     0.157700000000     0.072366666667     0          
H1       H      0.065033333333     0.151733333333     0.065033333333     0          
O2       O      0.260633333333     0.211333333333     0.072700000000     0          
C1       C      0.250000000000     0.203766666667     0.083333333333     0          
C2       C      0.250000000000     0.184600000000     0.083333333333     0          
C3       C      0.260966666667     0.175633333333     0.072366666667     0          
H1       H      0.268300000000     0.181600000000     0.065033333333     0          
O2       O      0.260633333333     0.122000000000     0.260633333333     0          
C1       C      0.250000000000     0.129566666667     0.250000000000     0          
C2       C      0.250000000000     0.148733333333     0.250000000000     0          
C3       C      0.260966666667     0.157700000000     0.260966666667     0          
H1       H      0.268300000000     0.151733333333     0.268300000000     0          
O2       O      0.239366666667     0.093966666667     0.122000000000     0          
C3       C      0.239033333333     0.094300000000     0.157700000000     0          
H1       H      0.231700000000     0.101633333333     0.151733333333     0          
O2       O      0.072700000000     0.072700000000     0.122000000000     0          
C3       C      0.072366666667     0.072366666667     0.157700000000     0          
H1       H      0.065033333333     0.065033333333     0.151733333333     0          
O2       O      0.093966666667     0.239366666667     0.122000000000     0          
C3       C      0.094300000000     0.239033333333     0.157700000000     0          
H1       H      0.101633333333     0.231700000000     0.151733333333     0          
O2       O      0.260633333333     0.260633333333     0.122000000000     0          
C3       C      0.260966666667     0.260966666667     0.157700000000     0          
H1       H      0.268300000000     0.268300000000     0.151733333333     0          
O2       O      0.239366666667     0.239366666667     0.211333333333     0          
C3       C      0.239033333333     0.239033333333     0.175633333333     0          
H1       H      0.231700000000     0.231700000000     0.181600000000     0          
O2       O      0.260633333333     0.072700000000     0.211333333333     0          
C3       C      0.260966666667     0.072366666667     0.175633333333     0          
H1       H      0.268300000000     0.065033333333     0.181600000000     0          
O2       O      0.093966666667     0.093966666667     0.211333333333     0          
C3       C      0.094300000000     0.094300000000     0.175633333333     0          
H1       H      0.101633333333     0.101633333333     0.181600000000     0          
O2       O      0.072700000000     0.260633333333     0.211333333333     0          
C3       C      0.072366666667     0.260966666667     0.175633333333     0          
H1       H      0.065033333333     0.268300000000     0.181600000000     0          
O2       O      0.093966666667     0.122000000000     0.093966666667     0          
C3       C      0.094300000000     0.157700000000     0.094300000000     0          
H1       H      0.101633333333     0.151733333333     0.101633333333     0          
O2       O      0.239366666667     0.211333333333     0.093966666667     0          
C3       C      0.239033333333     0.175633333333     0.094300000000     0          
H1       H      0.231700000000     0.181600000000     0.101633333333     0          
O2       O      0.239366666667     0.122000000000     0.239366666667     0          
C3       C      0.239033333333     0.157700000000     0.239033333333     0          
H1       H      0.231700000000     0.151733333333     0.231700000000     0          
O2       O      0.093966666667     0.211333333333     0.239366666667     0          
C3       C      0.094300000000     0.175633333333     0.239033333333     0          
H1       H      0.101633333333     0.181600000000     0.231700000000     0          
O2       O      0.260633333333     0.122000000000     0.072700000000     0          
C3       C      0.260966666667     0.157700000000     0.072366666667     0          
H1       H      0.268300000000     0.151733333333     0.065033333333     0          
O2       O      0.260633333333     0.211333333333     0.260633333333     0          
C3       C      0.260966666667     0.175633333333     0.260966666667     0          
H1       H      0.268300000000     0.181600000000     0.268300000000     0          
O2       O      0.072700000000     0.122000000000     0.260633333333     0          
C3       C      0.072366666667     0.157700000000     0.260966666667     0          
H1       H      0.065033333333     0.151733333333     0.268300000000     0          
O2       O      0.072700000000     0.211333333333     0.072700000000     0          
C3       C      0.072366666667     0.175633333333     0.072366666667     0          
H1       H      0.065033333333     0.181600000000     0.065033333333     0          
O2       O      0.211333333333     0.093966666667     0.239366666667     0          
C1       C      0.203766666667     0.083333333333     0.250000000000     0          
C2       C      0.184600000000     0.083333333333     0.250000000000     0          
C3       C      0.175633333333     0.094300000000     0.239033333333     0          
H1       H      0.181600000000     0.101633333333     0.231700000000     0          
O2       O      0.122000000000     0.239366666667     0.239366666667     0          
C1       C      0.129566666667     0.250000000000     0.250000000000     0          
C2       C      0.148733333333     0.250000000000     0.250000000000     0          
C3       C      0.157700000000     0.239033333333     0.239033333333     0          
H1       H      0.151733333333     0.231700000000     0.231700000000     0          
O2       O      0.211333333333     0.239366666667     0.093966666667     0          
C1       C      0.203766666667     0.250000000000     0.083333333333     0          
C2       C      0.184600000000     0.250000000000     0.083333333333     0          
C3       C      0.175633333333     0.239033333333     0.094300000000     0          
H1       H      0.181600000000     0.231700000000     0.101633333333     0          
O2       O      0.122000000000     0.093966666667     0.093966666667     0          
C1       C      0.129566666667     0.083333333333     0.083333333333     0          
C2       C      0.148733333333     0.083333333333     0.083333333333     0          
C3       C      0.157700000000     0.094300000000     0.094300000000     0          
H1       H      0.151733333333     0.101633333333     0.101633333333     0          
O2       O      0.211333333333     0.072700000000     0.072700000000     0          
C1       C      0.203766666667     0.083333333333     0.083333333333     0          
C2       C      0.184600000000     0.083333333333     0.083333333333     0          
C3       C      0.175633333333     0.072366666667     0.072366666667     0          
H1       H      0.181600000000     0.065033333333     0.065033333333     0          
O2       O      0.122000000000     0.260633333333     0.072700000000     0          
C1       C      0.129566666667     0.250000000000     0.083333333333     0          
C2       C      0.148733333333     0.250000000000     0.083333333333     0          
C3       C      0.157700000000     0.260966666667     0.072366666667     0          
H1       H      0.151733333333     0.268300000000     0.065033333333     0          
O2       O      0.211333333333     0.260633333333     0.260633333333     0          
C1       C      0.203766666667     0.250000000000     0.250000000000     0          
C2       C      0.184600000000     0.250000000000     0.250000000000     0          
C3       C      0.175633333333     0.260966666667     0.260966666667     0          
H1       H      0.181600000000     0.268300000000     0.268300000000     0          
O2       O      0.122000000000     0.072700000000     0.260633333333     0          
C1       C      0.129566666667     0.083333333333     0.250000000000     0          
C2       C      0.148733333333     0.083333333333     0.250000000000     0          
C3       C      0.157700000000     0.072366666667     0.260966666667     0          
H1       H      0.151733333333     0.065033333333     0.268300000000     0          
O2       O      0.122000000000     0.239366666667     0.093966666667     0          
C3       C      0.157700000000     0.239033333333     0.094300000000     0          
H1       H      0.151733333333     0.231700000000     0.101633333333     0          
O2       O      0.211333333333     0.093966666667     0.093966666667     0          
C3       C      0.175633333333     0.094300000000     0.094300000000     0          
H1       H      0.181600000000     0.101633333333     0.101633333333     0          
O2       O      0.122000000000     0.093966666667     0.239366666667     0          
C3       C      0.157700000000     0.094300000000     0.239033333333     0          
H1       H      0.151733333333     0.101633333333     0.231700000000     0          
O2       O      0.211333333333     0.239366666667     0.239366666667     0          
C3       C      0.175633333333     0.239033333333     0.239033333333     0          
H1       H      0.181600000000     0.231700000000     0.231700000000     0          
O2       O      0.122000000000     0.260633333333     0.260633333333     0          
C3       C      0.157700000000     0.260966666667     0.260966666667     0          
H1       H      0.151733333333     0.268300000000     0.268300000000     0          
O2       O      0.211333333333     0.072700000000     0.260633333333     0          
C3       C      0.175633333333     0.072366666667     0.260966666667     0          
H1       H      0.181600000000     0.065033333333     0.268300000000     0          
O2       O      0.122000000000     0.072700000000     0.072700000000     0          
C3       C      0.157700000000     0.072366666667     0.072366666667     0          
H1       H      0.151733333333     0.065033333333     0.065033333333     0          
O2       O      0.211333333333     0.260633333333     0.072700000000     0          
C3       C      0.175633333333     0.260966666667     0.072366666667     0          
H1       H      0.181600000000     0.268300000000     0.065033333333     0          
Zn1      Zn     0.097800000000     0.068866666667     0.402200000000     0          
O1       O      0.083333333333     0.083333333333     0.416666666667     0          
O2       O      0.093966666667     0.072700000000     0.378000000000     0          
C1       C      0.083333333333     0.083333333333     0.370433333333     0          
C2       C      0.083333333333     0.083333333333     0.351266666667     0          
C3       C      0.094300000000     0.072366666667     0.342300000000     0          
H1       H      0.101633333333     0.065033333333     0.348266666667     0          
Zn1      Zn     0.264466666667     0.097800000000     0.402200000000     0          
O1       O      0.250000000000     0.083333333333     0.416666666667     0          
O2       O      0.260633333333     0.093966666667     0.378000000000     0          
C1       C      0.250000000000     0.083333333333     0.370433333333     0          
C2       C      0.250000000000     0.083333333333     0.351266666667     0          
C3       C      0.260966666667     0.094300000000     0.342300000000     0          
H1       H      0.268300000000     0.101633333333     0.348266666667     0          
Zn1      Zn     0.235533333333     0.264466666667     0.402200000000     0          
O1       O      0.250000000000     0.250000000000     0.416666666667     0          
O2       O      0.239366666667     0.260633333333     0.378000000000     0          
C1       C      0.250000000000     0.250000000000     0.370433333333     0          
C2       C      0.250000000000     0.250000000000     0.351266666667     0          
C3       C      0.239033333333     0.260966666667     0.342300000000     0          
H1       H      0.231700000000     0.268300000000     0.348266666667     0          
Zn1      Zn     0.068866666667     0.235533333333     0.402200000000     0          
O1       O      0.083333333333     0.250000000000     0.416666666667     0          
O2       O      0.072700000000     0.239366666667     0.378000000000     0          
C1       C      0.083333333333     0.250000000000     0.370433333333     0          
C2       C      0.083333333333     0.250000000000     0.351266666667     0          
C3       C      0.072366666667     0.239033333333     0.342300000000     0          
H1       H      0.065033333333     0.231700000000     0.348266666667     0          
Zn1      Zn     0.097800000000     0.264466666667     0.597800000000     0          
O1       O      0.083333333333     0.250000000000     0.583333333333     0          
O2       O      0.093966666667     0.260633333333     0.622000000000     0          
C1       C      0.083333333333     0.250000000000     0.629566666667     0          
C2       C      0.083333333333     0.250000000000     0.648733333333     0          
C3       C      0.094300000000     0.260966666667     0.657700000000     0          
H1       H      0.101633333333     0.268300000000     0.651733333333     0          
Zn1      Zn     0.068866666667     0.097800000000     0.597800000000     0          
O1       O      0.083333333333     0.083333333333     0.583333333333     0          
O2       O      0.072700000000     0.093966666667     0.622000000000     0          
C1       C      0.083333333333     0.083333333333     0.629566666667     0          
C2       C      0.083333333333     0.083333333333     0.648733333333     0          
C3       C      0.072366666667     0.094300000000     0.657700000000     0          
H1       H      0.065033333333     0.101633333333     0.651733333333     0          
Zn1      Zn     0.235533333333     0.068866666667     0.597800000000     0          
O1       O      0.250000000000     0.083333333333     0.583333333333     0          
O2       O      0.239366666667     0.072700000000     0.622000000000     0          
C1       C      0.250000000000     0.083333333333     0.629566666667     0          
C2       C      0.250000000000     0.083333333333     0.648733333333     0          
C3       C      0.239033333333     0.072366666667     0.657700000000     0          
H1       H      0.231700000000     0.065033333333     0.651733333333     0          
Zn1      Zn     0.264466666667     0.235533333333     0.597800000000     0          
O1       O      0.250000000000     0.250000000000     0.583333333333     0          
O2       O      0.260633333333     0.239366666667     0.622000000000     0          
C1       C      0.250000000000     0.250000000000     0.629566666667     0          
C2       C      0.250000000000     0.250000000000     0.648733333333     0          
C3       C      0.260966666667     0.239033333333     0.657700000000     0          
H1       H      0.268300000000     0.231700000000     0.651733333333     0          
Zn1      Zn     0.068866666667     0.097800000000     0.402200000000     0          
O2       O      0.044666666667     0.093966666667     0.406033333333     0          
C1       C      0.037100000000     0.083333333333     0.416666666667     0          
C2       C      0.017933333333     0.083333333333     0.416666666667     0          
C3       C      0.008966666667     0.094300000000     0.405700000000     0          
H1       H      0.014933333333     0.101633333333     0.398366666667     0          
Zn1      Zn     0.235533333333     0.068866666667     0.402200000000     0          
O2       O      0.239366666667     0.044666666667     0.406033333333     0          
C1       C      0.250000000000     0.037100000000     0.416666666667     0          
C2       C      0.250000000000     0.017933333333     0.416666666667     0          
C3       C      0.239033333333     0.008966666667     0.405700000000     0          
H1       H      0.231700000000     0.014933333333     0.398366666667     0          
Zn1      Zn     0.264466666667     0.235533333333     0.402200000000     0          
O2       O      0.288666666667     0.239366666667     0.406033333333     0          
C1       C      0.296233333333     0.250000000000     0.416666666667     0          
C2       C      0.315400000000     0.250000000000     0.416666666667     0          
C3       C      0.324366666667     0.239033333333     0.405700000000     0          
H1       H      0.318400000000     0.231700000000     0.398366666667     0          
Zn1      Zn     0.097800000000     0.264466666667     0.402200000000     0          
O2       O      0.093966666667     0.288666666667     0.406033333333     0          
C1       C      0.083333333333     0.296233333333     0.416666666667     0          
C2       C      0.083333333333     0.315400000000     0.416666666667     0          
C3       C      0.094300000000     0.324366666667     0.405700000000     0          
H1       H      0.101633333333     0.318400000000     0.398366666667     0          
Zn1      Zn     0.068866666667     0.235533333333     0.597800000000     0          
O2       O      0.044666666667     0.239366666667     0.593966666667     0          
C1       C      0.037100000000     0.250000000000     0.583333333333     0          
C2       C      0.017933333333     0.250000000000     0.583333333333     0          
C3       C      0.008966666667     0.239033333333     0.594300000000     0          
H1       H      0.014933333333     0.231700000000     0.601633333333     0          
Zn1      Zn     0.097800000000     0.068866666667     0.597800000000     0          
O2       O      0.093966666667     0.044666666667     0.593966666667     0          
C1       C      0.083333333333     0.037100000000     0.583333333333     0          
C2       C      0.083333333333     0.017933333333     0.583333333333     0          
C3       C      0.094300000000     0.008966666667     0.594300000000     0          
H1       H      0.101633333333     0.014933333333     0.601633333333     0          
Zn1      Zn     0.264466666667     0.097800000000     0.597800000000     0          
O2       O      0.288666666667     0.093966666667     0.593966666667     0          
C1       C      0.296233333333     0.083333333333     0.583333333333     0          
C2       C      0.315400000000     0.083333333333     0.583333333333     0          
C3       C      0.324366666667     0.094300000000     0.594300000000     0          
H1       H      0.318400000000     0.101633333333     0.601633333333     0          
Zn1      Zn     0.235533333333     0.264466666667     0.597800000000     0          
O2       O      0.239366666667     0.288666666667     0.593966666667     0          
C1       C      0.250000000000     0.296233333333     0.583333333333     0          
C2       C      0.250000000000     0.315400000000     0.583333333333     0          
C3       C      0.239033333333     0.324366666667     0.594300000000     0          
H1       H      0.231700000000     0.318400000000     0.601633333333     0          
Zn1      Zn     0.068866666667     0.068866666667     0.431133333333     0          
O2       O      0.072700000000     0.044666666667     0.427300000000     0          
C1       C      0.083333333333     0.037100000000     0.416666666667     0          
C2       C      0.083333333333     0.017933333333     0.416666666667     0          
C3       C      0.072366666667     0.008966666667     0.427633333333     0          
H1       H      0.065033333333     0.014933333333     0.434966666667     0          
Zn1      Zn     0.068866666667     0.264466666667     0.568866666667     0          
O2       O      0.072700000000     0.288666666667     0.572700000000     0          
C1       C      0.083333333333     0.296233333333     0.583333333333     0          
C2       C      0.083333333333     0.315400000000     0.583333333333     0          
C3       C      0.072366666667     0.324366666667     0.572366666667     0          
H1       H      0.065033333333     0.318400000000     0.565033333333     0          
Zn1      Zn     0.068866666667     0.068866666667     0.568866666667     0          
O2       O      0.044666666667     0.072700000000     0.572700000000     0          
C1       C      0.037100000000     0.083333333333     0.583333333333     0          
C2       C      0.017933333333     0.083333333333     0.583333333333     0          
C3       C      0.008966666667     0.072366666667     0.572366666667     0          
H1       H      0.014933333333     0.065033333333     0.565033333333     0          
Zn1      Zn     0.264466666667     0.068866666667     0.568866666667     0          
O2       O      0.260633333333     0.044666666667     0.572700000000     0          
C1       C      0.250000000000     0.037100000000     0.583333333333     0          
C2       C      0.250000000000     0.017933333333     0.583333333333     0          
C3       C      0.260966666667     0.008966666667     0.572366666667     0          
H1       H      0.268300000000     0.014933333333     0.565033333333     0          
Zn1      Zn     0.264466666667     0.264466666667     0.568866666667     0          
O2       O      0.288666666667     0.260633333333     0.572700000000     0          
C1       C      0.296233333333     0.250000000000     0.583333333333     0          
C2       C      0.315400000000     0.250000000000     0.583333333333     0          
C3       C      0.324366666667     0.260966666667     0.572366666667     0          
H1       H      0.318400000000     0.268300000000     0.565033333333     0          
Zn1      Zn     0.264466666667     0.264466666667     0.431133333333     0          
O2       O      0.260633333333     0.288666666667     0.427300000000     0          
C1       C      0.250000000000     0.296233333333     0.416666666667     0          
C2       C      0.250000000000     0.315400000000     0.416666666667     0          
C3       C      0.260966666667     0.324366666667     0.427633333333     0          
H1       H      0.268300000000     0.318400000000     0.434966666667     0          
Zn1      Zn     0.068866666667     0.264466666667     0.431133333333     0          
O2       O      0.044666666667     0.260633333333     0.427300000000     0          
C1       C      0.037100000000     0.250000000000     0.416666666667     0          
C2       C      0.017933333333     0.250000000000     0.416666666667     0          
C3       C      0.008966666667     0.260966666667     0.427633333333     0          
H1       H      0.014933333333     0.268300000000     0.434966666667     0          
Zn1      Zn     0.264466666667     0.068866666667     0.431133333333     0          
O2       O      0.288666666667     0.072700000000     0.427300000000     0          
C1       C      0.296233333333     0.083333333333     0.416666666667     0          
C2       C      0.315400000000     0.083333333333     0.416666666667     0          
C3       C      0.324366666667     0.072366666667     0.427633333333     0          
H1       H      0.318400000000     0.065033333333     0.434966666667     0          
O2       O      0.239366666667     0.260633333333     0.622000000000     0          
C3       C      0.239033333333     0.260966666667     0.657700000000     0          
H1       H      0.231700000000     0.268300000000     0.651733333333     0          
O2       O      0.072700000000     0.239366666667     0.622000000000     0          
C3       C      0.072366666667     0.239033333333     0.657700000000     0          
H1       H      0.065033333333     0.231700000000     0.651733333333     0          
O2       O      0.093966666667     0.072700000000     0.622000000000     0          
C3       C      0.094300000000     0.072366666667     0.657700000000     0          
H1       H      0.101633333333     0.065033333333     0.651733333333     0          
O2       O      0.260633333333     0.093966666667     0.622000000000     0          
C3       C      0.260966666667     0.094300000000     0.657700000000     0          
H1       H      0.268300000000     0.101633333333     0.651733333333     0          
O2       O      0.239366666667     0.072700000000     0.378000000000     0          
C3       C      0.239033333333     0.072366666667     0.342300000000     0          
H1       H      0.231700000000     0.065033333333     0.348266666667     0          
O2       O      0.260633333333     0.239366666667     0.378000000000     0          
C3       C      0.260966666667     0.239033333333     0.342300000000     0          
H1       H      0.268300000000     0.231700000000     0.348266666667     0          
O2       O      0.093966666667     0.260633333333     0.378000000000     0          
C3       C      0.094300000000     0.260966666667     0.342300000000     0          
H1       H      0.101633333333     0.268300000000     0.348266666667     0          
O2       O      0.072700000000     0.093966666667     0.378000000000     0          
C3       C      0.072366666667     0.094300000000     0.342300000000     0          
H1       H      0.065033333333     0.101633333333     0.348266666667     0          
O2       O      0.288666666667     0.239366666667     0.593966666667     0          
C3       C      0.324366666667     0.239033333333     0.594300000000     0          
H1       H      0.318400000000     0.231700000000     0.601633333333     0          
O2       O      0.093966666667     0.288666666667     0.593966666667     0          
C3       C      0.094300000000     0.324366666667     0.594300000000     0          
H1       H      0.101633333333     0.318400000000     0.601633333333     0          
O2       O      0.044666666667     0.093966666667     0.593966666667     0          
C3       C      0.008966666667     0.094300000000     0.594300000000     0          
H1       H      0.014933333333     0.101633333333     0.601633333333     0          
O2       O      0.239366666667     0.044666666667     0.593966666667     0          
C3       C      0.239033333333     0.008966666667     0.594300000000     0          
H1       H      0.231700000000     0.014933333333     0.601633333333     0          
O2       O      0.288666666667     0.093966666667     0.406033333333     0          
C3       C      0.324366666667     0.094300000000     0.405700000000     0          
H1       H      0.318400000000     0.101633333333     0.398366666667     0          
O2       O      0.239366666667     0.288666666667     0.406033333333     0          
C3       C      0.239033333333     0.324366666667     0.405700000000     0          
H1       H      0.231700000000     0.318400000000     0.398366666667     0          
O2       O      0.044666666667     0.239366666667     0.406033333333     0          
C3       C      0.008966666667     0.239033333333     0.405700000000     0          
H1       H      0.014933333333     0.231700000000     0.398366666667     0          
O2       O      0.093966666667     0.044666666667     0.406033333333     0          
C3       C      0.094300000000     0.008966666667     0.405700000000     0          
H1       H      0.101633333333     0.014933333333     0.398366666667     0          
O2       O      0.260633333333     0.288666666667     0.572700000000     0          
C3       C      0.260966666667     0.324366666667     0.572366666667     0          
H1       H      0.268300000000     0.318400000000     0.565033333333     0          
O2       O      0.260633333333     0.044666666667     0.427300000000     0          
C3       C      0.260966666667     0.008966666667     0.427633333333     0          
H1       H      0.268300000000     0.014933333333     0.434966666667     0          
O2       O      0.288666666667     0.260633333333     0.427300000000     0          
C3       C      0.324366666667     0.260966666667     0.427633333333     0          
H1       H      0.318400000000     0.268300000000     0.434966666667     0          
O2       O      0.072700000000     0.288666666667     0.427300000000     0          
C3       C      0.072366666667     0.324366666667     0.427633333333     0          
H1       H      0.065033333333     0.318400000000     0.434966666667     0          
O2       O      0.044666666667     0.072700000000     0.427300000000     0          
C3       C      0.008966666667     0.072366666667     0.427633333333     0          
H1       H      0.014933333333     0.065033333333     0.434966666667     0          
O2       O      0.072700000000     0.044666666667     0.572700000000     0          
C3       C      0.072366666667     0.008966666667     0.572366666667     0          
H1       H      0.065033333333     0.014933333333     0.565033333333     0          
O2       O      0.288666666667     0.072700000000     0.572700000000     0          
C3       C      0.324366666667     0.072366666667     0.572366666667     0          
H1       H      0.318400000000     0.065033333333     0.565033333333     0          
O2       O      0.044666666667     0.260633333333     0.572700000000     0          
C3       C      0.008966666667     0.260966666667     0.572366666667     0          
H1       H      0.014933333333     0.268300000000     0.565033333333     0          
Zn1      Zn     0.097800000000     0.235533333333     0.568866666667     0          
O2       O      0.093966666667     0.239366666667     0.544666666667     0          
C1       C      0.083333333333     0.250000000000     0.537100000000     0          
C2       C      0.083333333333     0.250000000000     0.517933333333     0          
C3       C      0.094300000000     0.239033333333     0.508966666667     0          
H1       H      0.101633333333     0.231700000000     0.514933333333     0          
O2       O      0.260633333333     0.260633333333     0.544666666667     0          
C1       C      0.250000000000     0.250000000000     0.537100000000     0          
C2       C      0.250000000000     0.250000000000     0.517933333333     0          
C3       C      0.260966666667     0.260966666667     0.508966666667     0          
H1       H      0.268300000000     0.268300000000     0.514933333333     0          
Zn1      Zn     0.235533333333     0.097800000000     0.568866666667     0          
O2       O      0.239366666667     0.093966666667     0.544666666667     0          
C1       C      0.250000000000     0.083333333333     0.537100000000     0          
C2       C      0.250000000000     0.083333333333     0.517933333333     0          
C3       C      0.239033333333     0.094300000000     0.508966666667     0          
H1       H      0.231700000000     0.101633333333     0.514933333333     0          
O2       O      0.072700000000     0.072700000000     0.544666666667     0          
C1       C      0.083333333333     0.083333333333     0.537100000000     0          
C2       C      0.083333333333     0.083333333333     0.517933333333     0          
C3       C      0.072366666667     0.072366666667     0.508966666667     0          
H1       H      0.065033333333     0.065033333333     0.514933333333     0          
Zn1      Zn     0.097800000000     0.097800000000     0.431133333333     0          
O2       O      0.093966666667     0.093966666667     0.455333333333     0          
C1       C      0.083333333333     0.083333333333     0.462900000000     0          
C2       C      0.083333333333     0.083333333333     0.482066666667     0          
C3       C      0.094300000000     0.094300000000     0.491033333333     0          
H1       H      0.101633333333     0.101633333333     0.485066666667     0          
O2       O      0.072700000000     0.260633333333     0.455333333333     0          
C1       C      0.083333333333     0.250000000000     0.462900000000     0          
C2       C      0.083333333333     0.250000000000     0.482066666667     0          
C3       C      0.072366666667     0.260966666667     0.491033333333     0          
H1       H      0.065033333333     0.268300000000     0.485066666667     0          
Zn1      Zn     0.235533333333     0.235533333333     0.431133333333     0          
O2       O      0.239366666667     0.239366666667     0.455333333333     0          
C1       C      0.250000000000     0.250000000000     0.462900000000     0          
C2       C      0.250000000000     0.250000000000     0.482066666667     0          
C3       C      0.239033333333     0.239033333333     0.491033333333     0          
H1       H      0.231700000000     0.231700000000     0.485066666667     0          
O2       O      0.260633333333     0.072700000000     0.455333333333     0          
C1       C      0.250000000000     0.083333333333     0.462900000000     0          
C2       C      0.250000000000     0.083333333333     0.482066666667     0          
C3       C      0.260966666667     0.072366666667     0.491033333333     0          
H1       H      0.268300000000     0.065033333333     0.485066666667     0          
Zn1      Zn     0.235533333333     0.235533333333     0.568866666667     0          
O2       O      0.239366666667     0.211333333333     0.572700000000     0          
C1       C      0.250000000000     0.203766666667     0.583333333333     0          
C2       C      0.250000000000     0.184600000000     0.583333333333     0          
C3       C      0.239033333333     0.175633333333     0.572366666667     0          
H1       H      0.231700000000     0.181600000000     0.565033333333     0          
Zn1      Zn     0.097800000000     0.097800000000     0.568866666667     0          
O2       O      0.093966666667     0.122000000000     0.572700000000     0          
C1       C      0.083333333333     0.129566666667     0.583333333333     0          
C2       C      0.083333333333     0.148733333333     0.583333333333     0          
C3       C      0.094300000000     0.157700000000     0.572366666667     0          
H1       H      0.101633333333     0.151733333333     0.565033333333     0          
Zn1      Zn     0.097800000000     0.235533333333     0.431133333333     0          
O2       O      0.093966666667     0.211333333333     0.427300000000     0          
C1       C      0.083333333333     0.203766666667     0.416666666667     0          
C2       C      0.083333333333     0.184600000000     0.416666666667     0          
C3       C      0.094300000000     0.175633333333     0.427633333333     0          
H1       H      0.101633333333     0.181600000000     0.434966666667     0          
Zn1      Zn     0.235533333333     0.097800000000     0.431133333333     0          
O2       O      0.239366666667     0.122000000000     0.427300000000     0          
C1       C      0.250000000000     0.129566666667     0.416666666667     0          
C2       C      0.250000000000     0.148733333333     0.416666666667     0          
C3       C      0.239033333333     0.157700000000     0.427633333333     0          
H1       H      0.231700000000     0.151733333333     0.434966666667     0          
O2       O      0.072700000000     0.211333333333     0.593966666667     0          
C1       C      0.083333333333     0.203766666667     0.583333333333     0          
C2       C      0.083333333333     0.184600000000     0.583333333333     0          
C3       C      0.072366666667     0.175633333333     0.594300000000     0          
H1       H      0.065033333333     0.181600000000     0.601633333333     0          
O2       O      0.072700000000     0.122000000000     0.406033333333     0          
C1       C      0.083333333333     0.129566666667     0.416666666667     0          
C2       C      0.083333333333     0.148733333333     0.416666666667     0          
C3       C      0.072366666667     0.157700000000     0.405700000000     0          
H1       H      0.065033333333     0.151733333333     0.398366666667     0          
O2       O      0.260633333333     0.211333333333     0.406033333333     0          
C1       C      0.250000000000     0.203766666667     0.416666666667     0          
C2       C      0.250000000000     0.184600000000     0.416666666667     0          
C3       C      0.260966666667     0.175633333333     0.405700000000     0          
H1       H      0.268300000000     0.181600000000     0.398366666667     0          
O2       O      0.260633333333     0.122000000000     0.593966666667     0          
C1       C      0.250000000000     0.129566666667     0.583333333333     0          
C2       C      0.250000000000     0.148733333333     0.583333333333     0          
C3       C      0.260966666667     0.157700000000     0.594300000000     0          
H1       H      0.268300000000     0.151733333333     0.601633333333     0          
O2       O      0.239366666667     0.093966666667     0.455333333333     0          
C3       C      0.239033333333     0.094300000000     0.491033333333     0          
H1       H      0.231700000000     0.101633333333     0.485066666667     0          
O2       O      0.072700000000     0.072700000000     0.455333333333     0          
C3       C      0.072366666667     0.072366666667     0.491033333333     0          
H1       H      0.065033333333     0.065033333333     0.485066666667     0          
O2       O      0.093966666667     0.239366666667     0.455333333333     0          
C3       C      0.094300000000     0.239033333333     0.491033333333     0          
H1       H      0.101633333333     0.231700000000     0.485066666667     0          
O2       O      0.260633333333     0.260633333333     0.455333333333     0          
C3       C      0.260966666667     0.260966666667     0.491033333333     0          
H1       H      0.268300000000     0.268300000000     0.485066666667     0          
O2       O      0.239366666667     0.239366666667     0.544666666667     0          
C3       C      0.239033333333     0.239033333333     0.508966666667     0          
H1       H      0.231700000000     0.231700000000     0.514933333333     0          
O2       O      0.260633333333     0.072700000000     0.544666666667     0          
C3       C      0.260966666667     0.072366666667     0.508966666667     0          
H1       H      0.268300000000     0.065033333333     0.514933333333     0          
O2       O      0.093966666667     0.093966666667     0.544666666667     0          
C3       C      0.094300000000     0.094300000000     0.508966666667     0          
H1       H      0.101633333333     0.101633333333     0.514933333333     0          
O2       O      0.072700000000     0.260633333333     0.544666666667     0          
C3       C      0.072366666667     0.260966666667     0.508966666667     0          
H1       H      0.065033333333     0.268300000000     0.514933333333     0          
O2       O      0.093966666667     0.122000000000     0.427300000000     0          
C3       C      0.094300000000     0.157700000000     0.427633333333     0          
H1       H      0.101633333333     0.151733333333     0.434966666667     0          
O2       O      0.239366666667     0.211333333333     0.427300000000     0          
C3       C      0.239033333333     0.175633333333     0.427633333333     0          
H1       H      0.231700000000     0.181600000000     0.434966666667     0          
O2       O      0.239366666667     0.122000000000     0.572700000000     0          
C3       C      0.239033333333     0.157700000000     0.572366666667     0          
H1       H      0.231700000000     0.151733333333     0.565033333333     0          
O2       O      0.093966666667     0.211333333333     0.572700000000     0          
C3       C      0.094300000000     0.175633333333     0.572366666667     0          
H1       H      0.101633333333     0.181600000000     0.565033333333     0          
O2       O      0.260633333333     0.122000000000     0.406033333333     0          
C3       C      0.260966666667     0.157700000000     0.405700000000     0          
H1       H      0.268300000000     0.151733333333     0.398366666667     0          
O2       O      0.260633333333     0.211333333333     0.593966666667     0          
C3       C      0.260966666667     0.175633333333     0.594300000000     0          
H1       H      0.268300000000     0.181600000000     0.601633333333     0          
O2       O      0.072700000000     0.122000000000     0.593966666667     0          
C3       C      0.072366666667     0.157700000000     0.594300000000     0          
H1       H      0.065033333333     0.151733333333     0.601633333333     0          
O2       O      0.072700000000     0.211333333333     0.406033333333     0          
C3       C      0.072366666667     0.175633333333     0.405700000000     0          
H1       H      0.065033333333     0.181600000000     0.398366666667     0          
O2       O      0.211333333333     0.093966666667     0.572700000000     0          
C1       C      0.203766666667     0.083333333333     0.583333333333     0          
C2       C      0.184600000000     0.083333333333     0.583333333333     0          
C3       C      0.175633333333     0.094300000000     0.572366666667     0          
H1       H      0.181600000000     0.101633333333     0.565033333333     0          
O2       O      0.122000000000     0.239366666667     0.572700000000     0          
C1       C      0.129566666667     0.250000000000     0.583333333333     0          
C2       C      0.148733333333     0.250000000000     0.583333333333     0          
C3       C      0.157700000000     0.239033333333     0.572366666667     0          
H1       H      0.151733333333     0.231700000000     0.565033333333     0          
O2       O      0.211333333333     0.239366666667     0.427300000000     0          
C1       C      0.203766666667     0.250000000000     0.416666666667     0          
C2       C      0.184600000000     0.250000000000     0.416666666667     0          
C3       C      0.175633333333     0.239033333333     0.427633333333     0          
H1       H      0.181600000000     0.231700000000     0.434966666667     0          
O2       O      0.122000000000     0.093966666667     0.427300000000     0          
C1       C      0.129566666667     0.083333333333     0.416666666667     0          
C2       C      0.148733333333     0.083333333333     0.416666666667     0          
C3       C      0.157700000000     0.094300000000     0.427633333333     0          
H1       H      0.151733333333     0.101633333333     0.434966666667     0          
O2       O      0.211333333333     0.072700000000     0.406033333333     0          
C1       C      0.203766666667     0.083333333333     0.416666666667     0          
C2       C      0.184600000000     0.083333333333     0.416666666667     0          
C3       C      0.175633333333     0.072366666667     0.405700000000     0          
H1       H      0.181600000000     0.065033333333     0.398366666667     0          
O2       O      0.122000000000     0.260633333333     0.406033333333     0          
C1       C      0.129566666667     0.250000000000     0.416666666667     0          
C2       C      0.148733333333     0.250000000000     0.416666666667     0          
C3       C      0.157700000000     0.260966666667     0.405700000000     0          
H1       H      0.151733333333     0.268300000000     0.398366666667     0          
O2       O      0.211333333333     0.260633333333     0.593966666667     0          
C1       C      0.203766666667     0.250000000000     0.583333333333     0          
C2       C      0.184600000000     0.250000000000     0.583333333333     0          
C3       C      0.175633333333     0.260966666667     0.594300000000     0          
H1       H      0.181600000000     0.268300000000     0.601633333333     0          
O2       O      0.122000000000     0.072700000000     0.593966666667     0          
C1       C      0.129566666667     0.083333333333     0.583333333333     0          
C2       C      0.148733333333     0.083333333333     0.583333333333     0          
C3       C      0.157700000000     0.072366666667     0.594300000000     0          
H1       H      0.151733333333     0.065033333333     0.601633333333     0          
O2       O      0.122000000000     0.239366666667     0.427300000000     0          
C3       C      0.157700000000     0.239033333333     0.427633333333     0          
H1       H      0.151733333333     0.231700000000     0.434966666667     0          
O2       O      0.211333333333     0.093966666667     0.427300000000     0          
C3       C      0.175633333333     0.094300000000     0.427633333333     0          
H1       H      0.181600000000     0.101633333333     0.434966666667     0          
O2       O      0.122000000000     0.093966666667     0.572700000000     0          
C3       C      0.157700000000     0.094300000000     0.572366666667     0          
H1       H      0.151733333333     0.101633333333     0.565033333333     0          
O2       O      0.211333333333     0.239366666667     0.572700000000     0          
C3       C      0.175633333333     0.239033333333     0.572366666667     0          
H1       H      0.181600000000     0.231700000000     0.565033333333     0          
O2       O      0.122000000000     0.260633333333     0.593966666667     0          
C3       C      0.157700000000     0.260966666667     0.594300000000     0          
H1       H      0.151733333333     0.268300000000     0.601633333333     0          
O2       O      0.211333333333     0.072700000000     0.593966666667     0          
C3       C      0.175633333333     0.072366666667     0.594300000000     0          
H1       H      0.181600000000     0.065033333333     0.601633333333     0          
O2       O      0.122000000000     0.072700000000     0.406033333333     0          
C3       C      0.157700000000     0.072366666667     0.405700000000     0          
H1       H      0.151733333333     0.065033333333     0.398366666667     0          
O2       O      0.211333333333     0.260633333333     0.406033333333     0          
C3       C      0.175633333333     0.260966666667     0.405700000000     0          
H1       H      0.181600000000     0.268300000000     0.398366666667     0          
Zn1      Zn     0.097800000000     0.068866666667     0.735533333333     0          
O1       O      0.083333333333     0.083333333333     0.750000000000     0          
O2       O      0.093966666667     0.072700000000     0.711333333333     0          
C1       C      0.083333333333     0.083333333333     0.703766666667     0          
C2       C      0.083333333333     0.083333333333     0.684600000000     0          
C3       C      0.094300000000     0.072366666667     0.675633333333     0          
H1       H      0.101633333333     0.065033333333     0.681600000000     0          
Zn1      Zn     0.264466666667     0.097800000000     0.735533333333     0          
O1       O      0.250000000000     0.083333333333     0.750000000000     0          
O2       O      0.260633333333     0.093966666667     0.711333333333     0          
C1       C      0.250000000000     0.083333333333     0.703766666667     0          
C2       C      0.250000000000     0.083333333333     0.684600000000     0          
C3       C      0.260966666667     0.094300000000     0.675633333333     0          
H1       H      0.268300000000     0.101633333333     0.681600000000     0          
Zn1      Zn     0.235533333333     0.264466666667     0.735533333333     0          
O1       O      0.250000000000     0.250000000000     0.750000000000     0          
O2       O      0.239366666667     0.260633333333     0.711333333333     0          
C1       C      0.250000000000     0.250000000000     0.703766666667     0          
C2       C      0.250000000000     0.250000000000     0.684600000000     0          
C3       C      0.239033333333     0.260966666667     0.675633333333     0          
H1       H      0.231700000000     0.268300000000     0.681600000000     0          
Zn1      Zn     0.068866666667     0.235533333333     0.735533333333     0          
O1       O      0.083333333333     0.250000000000     0.750000000000     0          
O2       O      0.072700000000     0.239366666667     0.711333333333     0          
C1       C      0.083333333333     0.250000000000     0.703766666667     0          
C2       C      0.083333333333     0.250000000000     0.684600000000     0          
C3       C      0.072366666667     0.239033333333     0.675633333333     0          
H1       H      0.065033333333     0.231700000000     0.681600000000     0          
Zn1      Zn     0.097800000000     0.264466666667     0.931133333333     0          
O1       O      0.083333333333     0.250000000000     0.916666666667     0          
O2       O      0.093966666667     0.260633333333     0.955333333333     0          
C1       C      0.083333333333     0.250000000000     0.962900000000     0          
C2       C      0.083333333333     0.250000000000     0.982066666667     0          
C3       C      0.094300000000     0.260966666667     0.991033333333     0          
H1       H      0.101633333333     0.268300000000     0.985066666667     0          
Zn1      Zn     0.068866666667     0.097800000000     0.931133333333     0          
O1       O      0.083333333333     0.083333333333     0.916666666667     0          
O2       O      0.072700000000     0.093966666667     0.955333333333     0          
C1       C      0.083333333333     0.083333333333     0.962900000000     0          
C2       C      0.083333333333     0.083333333333     0.982066666667     0          
C3       C      0.072366666667     0.094300000000     0.991033333333     0          
H1       H      0.065033333333     0.101633333333     0.985066666667     0          
Zn1      Zn     0.235533333333     0.068866666667     0.931133333333     0          
O1       O      0.250000000000     0.083333333333     0.916666666667     0          
O2       O      0.239366666667     0.072700000000     0.955333333333     0          
C1       C      0.250000000000     0.083333333333     0.962900000000     0          
C2       C      0.250000000000     0.083333333333     0.982066666667     0          
C3       C      0.239033333333     0.072366666667     0.991033333333     0          
H1       H      0.231700000000     0.065033333333     0.985066666667     0          
Zn1      Zn     0.264466666667     0.235533333333     0.931133333333     0          
O1       O      0.250000000000     0.250000000000     0.916666666667     0          
O2       O      0.260633333333     0.239366666667     0.955333333333     0          
C1       C      0.250000000000     0.250000000000     0.962900000000     0          
C2       C      0.250000000000     0.250000000000     0.982066666667     0          
C3       C      0.260966666667     0.239033333333     0.991033333333     0          
H1       H      0.268300000000     0.231700000000     0.985066666667     0          
Zn1      Zn     0.068866666667     0.097800000000     0.735533333333     0          
O2       O      0.044666666667     0.093966666667     0.739366666667     0          
C1       C      0.037100000000     0.083333333333     0.750000000000     0          
C2       C      0.017933333333     0.083333333333     0.750000000000     0          
C3       C      0.008966666667     0.094300000000     0.739033333333     0          
H1       H      0.014933333333     0.101633333333     0.731700000000     0          
Zn1      Zn     0.235533333333     0.068866666667     0.735533333333     0          
O2       O      0.239366666667     0.044666666667     0.739366666667     0          
C1       C      0.250000000000     0.037100000000     0.750000000000     0          
C2       C      0.250000000000     0.017933333333     0.750000000000     0          
C3       C      0.239033333333     0.008966666667     0.739033333333     0          
H1       H      0.231700000000     0.014933333333     0.731700000000     0          
Zn1      Zn     0.264466666667     0.235533333333     0.735533333333     0          
O2       O      0.288666666667     0.239366666667     0.739366666667     0          
C1       C      0.296233333333     0.250000000000     0.750000000000     0          
C2       C      0.315400000000     0.250000000000     0.750000000000     0          
C3       C      0.324366666667     0.239033333333     0.739033333333     0          
H1       H      0.318400000000     0.231700000000     0.731700000000     0          
Zn1      Zn     0.097800000000     0.264466666667     0.735533333333     0          
O2       O      0.093966666667     0.288666666667     0.739366666667     0          
C1       C      0.083333333333     0.296233333333     0.750000000000     0          
C2       C      0.083333333333     0.315400000000     0.750000000000     0          
C3       C      0.094300000000     0.324366666667     0.739033333333     0          
H1       H      0.101633333333     0.318400000000     0.731700000000     0          
Zn1      Zn     0.068866666667     0.235533333333     0.931133333333     0          
O2       O      0.044666666667     0.239366666667     0.927300000000     0          
C1       C      0.037100000000     0.250000000000     0.916666666667     0          
C2       C      0.017933333333     0.250000000000     0.916666666667     0          
C3       C      0.008966666667     0.239033333333     0.927633333333     0          
H1       H      0.014933333333     0.231700000000     0.934966666667     0          
Zn1      Zn     0.097800000000     0.068866666667     0.931133333333     0          
O2       O      0.093966666667     0.044666666667     0.927300000000     0          
C1       C      0.083333333333     0.037100000000     0.916666666667     0          
C2       C      0.083333333333     0.017933333333     0.916666666667     0          
C3       C      0.094300000000     0.008966666667     0.927633333333     0          
H1       H      0.101633333333     0.014933333333     0.934966666667     0          
Zn1      Zn     0.264466666667     0.097800000000     0.931133333333     0          
O2       O      0.288666666667     0.093966666667     0.927300000000     0          
C1       C      0.296233333333     0.083333333333     0.916666666667     0          
C2       C      0.315400000000     0.083333333333     0.916666666667     0          
C3       C      0.324366666667     0.094300000000     0.927633333333     0          
H1       H      0.318400000000     0.101633333333     0.934966666667     0          
Zn1      Zn     0.235533333333     0.264466666667     0.931133333333     0          
O2       O      0.239366666667     0.288666666667     0.927300000000     0          
C1       C      0.250000000000     0.296233333333     0.916666666667     0          
C2       C      0.250000000000     0.315400000000     0.916666666667     0          
C3       C      0.239033333333     0.324366666667     0.927633333333     0          
H1       H      0.231700000000     0.318400000000     0.934966666667     0          
Zn1      Zn     0.068866666667     0.068866666667     0.764466666667     0          
O2       O      0.072700000000     0.044666666667     0.760633333333     0          
C1       C      0.083333333333     0.037100000000     0.750000000000     0          
C2       C      0.083333333333     0.017933333333     0.750000000000     0          
C3       C      0.072366666667     0.008966666667     0.760966666667     0          
H1       H      0.065033333333     0.014933333333     0.768300000000     0          
Zn1      Zn     0.068866666667     0.264466666667     0.902200000000     0          
O2       O      0.072700000000     0.288666666667     0.906033333333     0          
C1       C      0.083333333333     0.296233333333     0.916666666667     0          
C2       C      0.083333333333     0.315400000000     0.916666666667     0          
C3       C      0.072366666667     0.324366666667     0.905700000000     0          
H1       H      0.065033333333     0.318400000000     0.898366666667     0          
Zn1      Zn     0.068866666667     0.068866666667     0.902200000000     0          
O2       O      0.044666666667     0.072700000000     0.906033333333     0          
C1       C      0.037100000000     0.083333333333     0.916666666667     0          
C2       C      0.017933333333     0.083333333333     0.916666666667     0          
C3       C      0.008966666667     0.072366666667     0.905700000000     0          
H1       H      0.014933333333     0.065033333333     0.898366666667     0          
Zn1      Zn     0.264466666667     0.068866666667     0.902200000000     0          
O2       O      0.260633333333     0.044666666667     0.906033333333     0          
C1       C      0.250000000000     0.037100000000     0.916666666667     0          
C2       C      0.250000000000     0.017933333333     0.916666666667     0          
C3       C      0.260966666667     0.008966666667     0.905700000000     0          
H1       H      0.268300000000     0.014933333333     0.898366666667     0          
Zn1      Zn     0.264466666667     0.264466666667     0.902200000000     0          
O2       O      0.288666666667     0.260633333333     0.906033333333     0          
C1       C      0.296233333333     0.250000000000     0.916666666667     0          
C2       C      0.315400000000     0.250000000000     0.916666666667     0          
C3       C      0.324366666667     0.260966666667     0.905700000000     0          
H1       H      0.318400000000     0.268300000000     0.898366666667     0          
Zn1      Zn     0.264466666667     0.264466666667     0.764466666667     0          
O2       O      0.260633333333     0.288666666667     0.760633333333     0          
C1       C      0.250000000000     0.296233333333     0.750000000000     0          
C2       C      0.250000000000     0.315400000000     0.750000000000     0          
C3       C      0.260966666667     0.324366666667     0.760966666667     0          
H1       H      0.268300000000     0.318400000000     0.768300000000     0          
Zn1      Zn     0.068866666667     0.264466666667     0.764466666667     0          
O2       O      0.044666666667     0.260633333333     0.760633333333     0          
C1       C      0.037100000000     0.250000000000     0.750000000000     0          
C2       C      0.017933333333     0.250000000000     0.750000000000     0          
C3       C      0.008966666667     0.260966666667     0.760966666667     0          
H1       H      0.014933333333     0.268300000000     0.768300000000     0          
Zn1      Zn     0.264466666667     0.068866666667     0.764466666667     0          
O2       O      0.288666666667     0.072700000000     0.760633333333     0          
C1       C      0.296233333333     0.083333333333     0.750000000000     0          
C2       C      0.315400000000     0.083333333333     0.750000000000     0          
C3       C      0.324366666667     0.072366666667     0.760966666667     0          
H1       H      0.318400000000     0.065033333333     0.768300000000     0          
O2       O      0.239366666667     0.260633333333     0.955333333333     0          
C3       C      0.239033333333     0.260966666667     0.991033333333     0          
H1       H      0.231700000000     0.268300000000     0.985066666667     0          
O2       O      0.072700000000     0.239366666667     0.955333333333     0          
C3       C      0.072366666667     0.239033333333     0.991033333333     0          
H1       H      0.065033333333     0.231700000000     0.985066666667     0          
O2       O      0.093966666667     0.072700000000     0.955333333333     0          
C3       C      0.094300000000     0.072366666667     0.991033333333     0          
H1       H      0.101633333333     0.065033333333     0.985066666667     0          
O2       O      0.260633333333     0.093966666667     0.955333333333     0          
C3       C      0.260966666667     0.094300000000     0.991033333333     0          
H1       H      0.268300000000     0.101633333333     0.985066666667     0          
O2       O      0.239366666667     0.072700000000     0.711333333333     0          
C3       C      0.239033333333     0.072366666667     0.675633333333     0          
H1       H      0.231700000000     0.065033333333     0.681600000000     0          
O2       O      0.260633333333     0.239366666667     0.711333333333     0          
C3       C      0.260966666667     0.239033333333     0.675633333333     0          
H1       H      0.268300000000     0.231700000000     0.681600000000     0          
O2       O      0.093966666667     0.260633333333     0.711333333333     0          
C3       C      0.094300000000     0.260966666667     0.675633333333     0          
H1       H      0.101633333333     0.268300000000     0.681600000000     0          
O2       O      0.072700000000     0.093966666667     0.711333333333     0          
C3       C      0.072366666667     0.094300000000     0.675633333333     0          
H1       H      0.065033333333     0.101633333333     0.681600000000     0          
O2       O      0.288666666667     0.239366666667     0.927300000000     0          
C3       C      0.324366666667     0.239033333333     0.927633333333     0          
H1       H      0.318400000000     0.231700000000     0.934966666667     0          
O2       O      0.093966666667     0.288666666667     0.927300000000     0          
C3       C      0.094300000000     0.324366666667     0.927633333333     0          
H1       H      0.101633333333     0.318400000000     0.934966666667     0          
O2       O      0.044666666667     0.093966666667     0.927300000000     0          
C3       C      0.008966666667     0.094300000000     0.927633333333     0          
H1       H      0.014933333333     0.101633333333     0.934966666667     0          
O2       O      0.239366666667     0.044666666667     0.927300000000     0          
C3       C      0.239033333333     0.008966666667     0.927633333333     0          
H1       H      0.231700000000     0.014933333333     0.934966666667     0          
O2       O      0.288666666667     0.093966666667     0.739366666667     0          
C3       C      0.324366666667     0.094300000000     0.739033333333     0          
H1       H      0.318400000000     0.101633333333     0.731700000000     0          
O2       O      0.239366666667     0.288666666667     0.739366666667     0          
C3       C      0.239033333333     0.324366666667     0.739033333333     0          
H1       H      0.231700000000     0.318400000000     0.731700000000     0          
O2       O      0.044666666667     0.239366666667     0.739366666667     0          
C3       C      0.008966666667     0.239033333333     0.739033333333     0          
H1       H      0.014933333333     0.231700000000     0.731700000000     0          
O2       O      0.093966666667     0.044666666667     0.739366666667     0          
C3       C      0.094300000000     0.008966666667     0.739033333333     0          
H1       H      0.101633333333     0.014933333333     0.731700000000     0          
O2       O      0.260633333333     0.288666666667     0.906033333333     0          
C3       C      0.260966666667     0.324366666667     0.905700000000     0          
H1       H      0.268300000000     0.318400000000     0.898366666667     0          
O2       O      0.260633333333     0.044666666667     0.760633333333     0          
C3       C      0.260966666667     0.008966666667     0.760966666667     0          
H1       H      0.268300000000     0.014933333333     0.768300000000     0          
O2       O      0.288666666667     0.260633333333     0.760633333333     0          
C3       C      0.324366666667     0.260966666667     0.760966666667     0          
H1       H      0.318400000000     0.268300000000     0.768300000000     0          
O2       O      0.072700000000     0.288666666667     0.760633333333     0          
C3       C      0.072366666667     0.324366666667     0.760966666667     0          
H1       H      0.065033333333     0.318400000000     0.768300000000     0          
O2       O      0.044666666667     0.072700000000     0.760633333333     0          
C3       C      0.008966666667     0.072366666667     0.760966666667     0          
H1       H      0.014933333333     0.065033333333     0.768300000000     0          
O2       O      0.072700000000     0.044666666667     0.906033333333     0          
C3       C      0.072366666667     0.008966666667     0.905700000000     0          
H1       H      0.065033333333     0.014933333333     0.898366666667     0          
O2       O      0.288666666667     0.072700000000     0.906033333333     0          
C3       C      0.324366666667     0.072366666667     0.905700000000     0          
H1       H      0.318400000000     0.065033333333     0.898366666667     0          
O2       O      0.044666666667     0.260633333333     0.906033333333     0          
C3       C      0.008966666667     0.260966666667     0.905700000000     0          
H1       H      0.014933333333     0.268300000000     0.898366666667     0          
Zn1      Zn     0.097800000000     0.235533333333     0.902200000000     0          
O2       O      0.093966666667     0.239366666667     0.878000000000     0          
C1       C      0.083333333333     0.250000000000     0.870433333333     0          
C2       C      0.083333333333     0.250000000000     0.851266666667     0          
C3       C      0.094300000000     0.239033333333     0.842300000000     0          
H1       H      0.101633333333     0.231700000000     0.848266666667     0          
O2       O      0.260633333333     0.260633333333     0.878000000000     0          
C1       C      0.250000000000     0.250000000000     0.870433333333     0          
C2       C      0.250000000000     0.250000000000     0.851266666667     0          
C3       C      0.260966666667     0.260966666667     0.842300000000     0          
H1       H      0.268300000000     0.268300000000     0.848266666667     0          
Zn1      Zn     0.235533333333     0.097800000000     0.902200000000     0          
O2       O      0.239366666667     0.093966666667     0.878000000000     0          
C1       C      0.250000000000     0.083333333333     0.870433333333     0          
C2       C      0.250000000000     0.083333333333     0.851266666667     0          
C3       C      0.239033333333     0.094300000000     0.842300000000     0          
H1       H      0.231700000000     0.101633333333     0.848266666667     0          
O2       O      0.072700000000     0.072700000000     0.878000000000     0          
C1       C      0.083333333333     0.083333333333     0.870433333333     0          
C2       C      0.083333333333     0.083333333333     0.851266666667     0          
C3       C      0.072366666667     0.072366666667     0.842300000000     0          
H1       H      0.065033333333     0.065033333333     0.848266666667     0          
Zn1      Zn     0.097800000000     0.097800000000     0.764466666667     0          
O2       O      0.093966666667     0.093966666667     0.788666666667     0          
C1       C      0.083333333333     0.083333333333     0.796233333333     0          
C2       C      0.083333333333     0.083333333333     0.815400000000     0          
C3       C      0.094300000000     0.094300000000     0.824366666667     0          
H1       H      0.101633333333     0.101633333333     0.818400000000     0          
O2       O      0.072700000000     0.260633333333     0.788666666667     0          
C1       C      0.083333333333     0.250000000000     0.796233333333     0          
C2       C      0.083333333333     0.250000000000     0.815400000000     0          
C3       C      0.072366666667     0.260966666667     0.824366666667     0          
H1       H      0.065033333333     0.268300000000     0.818400000000     0          
Zn1      Zn     0.235533333333     0.235533333333     0.764466666667     0          
O2       O      0.239366666667     0.239366666667     0.788666666667     0          
C1       C      0.250000000000     0.250000000000     0.796233333333     0          
C2       C      0.250000000000     0.250000000000     0.815400000000     0          
C3       C      0.239033333333     0.239033333333     0.824366666667     0          
H1       H      0.231700000000     0.231700000000     0.818400000000     0          
O2       O      0.260633333333     0.072700000000     0.788666666667     0          
C1       C      0.250000000000     0.083333333333     0.796233333333     0          
C2       C      0.250000000000     0.083333333333     0.815400000000     0          
C3       C      0.260966666667     0.072366666667     0.824366666667     0          
H1       H      0.268300000000     0.065033333333     0.818400000000     0          
Zn1      Zn     0.235533333333     0.235533333333     0.902200000000     0          
O2       O      0.239366666667     0.211333333333     0.906033333333     0          
C1       C      0.250000000000     0.203766666667     0.916666666667     0          
C2       C      0.250000000000     0.184600000000     0.916666666667     0          
C3       C      0.239033333333     0.175633333333     0.905700000000     0          
H1       H      0.231700000000     0.181600000000     0.898366666667     0          
Zn1      Zn     0.097800000000     0.097800000000     0.902200000000     0          
O2       O      0.093966666667     0.122000000000     0.906033333333     0          
C1       C      0.083333333333     0.129566666667     0.916666666667     0          
C2       C      0.083333333333     0.148733333333     0.916666666667     0          
C3       C      0.094300000000     0.157700000000     0.905700000000     0          
H1       H      0.101633333333     0.151733333333     0.898366666667     0          
Zn1      Zn     0.097800000000     0.235533333333     0.764466666667     0          
O2       O      0.093966666667     0.211333333333     0.760633333333     0          
C1       C      0.083333333333     0.203766666667     0.750000000000     0          
C2       C      0.083333333333     0.184600000000     0.750000000000     0          
C3       C      0.094300000000     0.175633333333     0.760966666667     0          
H1       H      0.101633333333     0.181600000000     0.768300000000     0          
Zn1      Zn     0.235533333333     0.097800000000     0.764466666667     0          
O2       O      0.239366666667     0.122000000000     0.760633333333     0          
C1       C      0.250000000000     0.129566666667     0.750000000000     0          
C2       C      0.250000000000     0.148733333333     0.750000000000     0          
C3       C      0.239033333333     0.157700000000     0.760966666667     0          
H1       H      0.231700000000     0.151733333333     0.768300000000     0          
O2       O      0.072700000000     0.211333333333     0.927300000000     0          
C1       C      0.083333333333     0.203766666667     0.916666666667     0          
C2       C      0.083333333333     0.184600000000     0.916666666667     0          
C3       C      0.072366666667     0.175633333333     0.927633333333     0          
H1       H      0.065033333333     0.181600000000     0.934966666667     0          
O2       O      0.072700000000     0.122000000000     0.739366666667     0          
C1       C      0.083333333333     0.129566666667     0.750000000000     0          
C2       C      0.083333333333     0.148733333333     0.750000000000     0          
C3       C      0.072366666667     0.157700000000     0.739033333333     0          
H1       H      0.065033333333     0.151733333333     0.731700000000     0          
O2       O      0.260633333333     0.211333333333     0.739366666667     0          
C1       C      0.250000000000     0.203766666667     0.750000000000     0          
C2       C      0.250000000000     0.184600000000     0.750000000000     0          
C3       C      0.260966666667     0.175633333333     0.739033333333     0          
H1       H      0.268300000000     0.181600000000     0.731700000000     0          
O2       O      0.260633333333     0.122000000000     0.927300000000     0          
C1       C      0.250000000000     0.129566666667     0.916666666667     0          
C2       C      0.250000000000     0.148733333333     0.916666666667     0          
C3       C      0.260966666667     0.157700000000     0.927633333333     0          
H1       H      0.268300000000     0.151733333333     0.934966666667     0          
O2       O      0.239366666667     0.093966666667     0.788666666667     0          
C3       C      0.239033333333     0.094300000000     0.824366666667     0          
H1       H      0.231700000000     0.101633333333     0.818400000000     0          
O2       O      0.072700000000     0.072700000000     0.788666666667     0          
C3       C      0.072366666667     0.072366666667     0.824366666667     0          
H1       H      0.065033333333     0.065033333333     0.818400000000     0          
O2       O      0.093966666667     0.239366666667     0.788666666667     0          
C3       C      0.094300000000     0.239033333333     0.824366666667     0          
H1       H      0.101633333333     0.231700000000     0.818400000000     0          
O2       O      0.260633333333     0.260633333333     0.788666666667     0          
C3       C      0.260966666667     0.260966666667     0.824366666667     0          
H1       H      0.268300000000     0.268300000000     0.818400000000     0          
O2       O      0.239366666667     0.239366666667     0.878000000000     0          
C3       C      0.239033333333     0.239033333333     0.842300000000     0          
H1       H      0.231700000000     0.231700000000     0.848266666667     0          
O2       O      0.260633333333     0.072700000000     0.878000000000     0          
C3       C      0.260966666667     0.072366666667     0.842300000000     0          
H1       H      0.268300000000     0.065033333333     0.848266666667     0          
O2       O      0.093966666667     0.093966666667     0.878000000000     0          
C3       C      0.094300000000     0.094300000000     0.842300000000     0          
H1       H      0.101633333333     0.101633333333     0.848266666667     0          
O2       O      0.072700000000     0.260633333333     0.878000000000     0          
C3       C      0.072366666667     0.260966666667     0.842300000000     0          
H1       H      0.065033333333     0.268300000000     0.848266666667     0          
O2       O      0.093966666667     0.122000000000     0.760633333333     0          
C3       C      0.094300000000     0.157700000000     0.760966666667     0          
H1       H      0.101633333333     0.151733333333     0.768300000000     0          
O2       O      0.239366666667     0.211333333333     0.760633333333     0          
C3       C      0.239033333333     0.175633333333     0.760966666667     0          
H1       H      0.231700000000     0.181600000000     0.768300000000     0          
O2       O      0.239366666667     0.122000000000     0.906033333333     0          
C3       C      0.239033333333     0.157700000000     0.905700000000     0          
H1       H      0.231700000000     0.151733333333     0.898366666667     0          
O2       O      0.093966666667     0.211333333333     0.906033333333     0          
C3       C      0.094300000000     0.175633333333     0.905700000000     0          
H1       H      0.101633333333     0.181600000000     0.898366666667     0          
O2       O      0.260633333333     0.122000000000     0.739366666667     0          
C3       C      0.260966666667     0.157700000000     0.739033333333     0          
H1       H      0.268300000000     0.151733333333     0.731700000000     0          
O2       O      0.260633333333     0.211333333333     0.927300000000     0          
C3       C      0.260966666667     0.175633333333     0.927633333333     0          
H1       H      0.268300000000     0.181600000000     0.934966666667     0          
O2       O      0.072700000000     0.122000000000     0.927300000000     0          
C3       C      0.072366666667     0.157700000000     0.927633333333     0          
H1       H      0.065033333333     0.151733333333     0.934966666667     0          
O2       O      0.072700000000     0.211333333333     0.739366666667     0          
C3       C      0.072366666667     0.175633333333     0.739033333333     0          
H1       H      0.065033333333     0.181600000000     0.731700000000     0          
O2       O      0.211333333333     0.093966666667     0.906033333333     0          
C1       C      0.203766666667     0.083333333333     0.916666666667     0          
C2       C      0.184600000000     0.083333333333     0.916666666667     0          
C3       C      0.175633333333     0.094300000000     0.905700000000     0          
H1       H      0.181600000000     0.101633333333     0.898366666667     0          
O2       O      0.122000000000     0.239366666667     0.906033333333     0          
C1       C      0.129566666667     0.250000000000     0.916666666667     0          
C2       C      0.148733333333     0.250000000000     0.916666666667     0          
C3       C      0.157700000000     0.239033333333     0.905700000000     0          
H1       H      0.151733333333     0.231700000000     0.898366666667     0          
O2       O      0.211333333333     0.239366666667     0.760633333333     0          
C1       C      0.203766666667     0.250000000000     0.750000000000     0          
C2       C      0.184600000000     0.250000000000     0.750000000000     0          
C3       C      0.175633333333     0.239033333333     0.760966666667     0          
H1       H      0.181600000000     0.231700000000     0.768300000000     0          
O2       O      0.122000000000     0.093966666667     0.760633333333     0          
C1       C      0.129566666667     0.083333333333     0.750000000000     0          
C2       C      0.148733333333     0.083333333333     0.750000000000     0          
C3       C      0.157700000000     0.094300000000     0.760966666667     0          
H1       H      0.151733333333     0.101633333333     0.768300000000     0          
O2       O      0.211333333333     0.072700000000     0.739366666667     0          
C1       C      0.203766666667     0.083333333333     0.750000000000     0          
C2       C      0.184600000000     0.083333333333     0.750000000000     0          
C3       C      0.175633333333     0.072366666667     0.739033333333     0          
H1       H      0.181600000000     0.065033333333     0.731700000000     0          
O2       O      0.122000000000     0.260633333333     0.739366666667     0          
C1       C      0.129566666667     0.250000000000     0.750000000000     0          
C2       C      0.148733333333     0.250000000000     0.750000000000     0          
C3       C      0.157700000000     0.260966666667     0.739033333333     0          
H1       H      0.151733333333     0.268300000000     0.731700000000     0          
O2       O      0.211333333333     0.260633333333     0.927300000000     0          
C1       C      0.203766666667     0.250000000000     0.916666666667     0          
C2       C      0.184600000000     0.250000000000     0.916666666667     0          
C3       C      0.175633333333     0.260966666667     0.927633333333     0          
H1       H      0.181600000000     0.268300000000     0.934966666667     0          
O2       O      0.122000000000     0.072700000000     0.927300000000     0          
C1       C      0.129566666667     0.083333333333     0.916666666667     0          
C2       C      0.148733333333     0.083333333333     0.916666666667     0          
C3       C      0.157700000000     0.072366666667     0.927633333333     0          
H1       H      0.151733333333     0.065033333333     0.934966666667     0          
O2       O      0.122000000000     0.239366666667     0.760633333333     0          
C3       C      0.157700000000     0.239033333333     0.760966666667     0          
H1       H      0.151733333333     0.231700000000     0.768300000000     0          
O2       O      0.211333333333     0.093966666667     0.760633333333     0          
C3       C      0.175633333333     0.094300000000     0.760966666667     0          
H1       H      0.181600000000     0.101633333333     0.768300000000     0          
O2       O      0.122000000000     0.093966666667     0.906033333333     0          
C3       C      0.157700000000     0.094300000000     0.905700000000     0          
H1       H      0.151733333333     0.101633333333     0.898366666667     0          
O2       O      0.211333333333     0.239366666667     0.906033333333     0          
C3       C      0.175633333333     0.239033333333     0.905700000000     0          
H1       H      0.181600000000     0.231700000000     0.898366666667     0          
O2       O      0.122000000000     0.260633333333     0.927300000000     0          
C3       C      0.157700000000     0.260966666667     0.927633333333     0          
H1       H      0.151733333333     0.268300000000     0.934966666667     0          
O2       O      0.211333333333     0.072700000000     0.927300000000     0          
C3       C      0.175633333333     0.072366666667     0.927633333333     0          
H1       H      0.181600000000     0.065033333333     0.934966666667     0          
O2       O      0.122000000000     0.072700000000     0.739366666667     0          
C3       C      0.157700000000     0.072366666667     0.739033333333     0          
H1       H      0.151733333333     0.065033333333     0.731700000000     0          
O2       O      0.211333333333     0.260633333333     0.739366666667     0          
C3       C      0.175633333333     0.260966666667     0.739033333333     0          
H1       H      0.181600000000     0.268300000000     0.731700000000     0          
Zn1      Zn     0.097800000000     0.402200000000     0.068866666667     0          
O1       O      0.083333333333     0.416666666667     0.083333333333     0          
O2       O      0.093966666667     0.406033333333     0.044666666667     0          
C1       C      0.083333333333     0.416666666667     0.037100000000     0          
C2       C      0.083333333333     0.416666666667     0.017933333333     0          
C3       C      0.094300000000     0.405700000000     0.008966666667     0          
H1       H      0.101633333333     0.398366666667     0.014933333333     0          
Zn1      Zn     0.264466666667     0.431133333333     0.068866666667     0          
O1       O      0.250000000000     0.416666666667     0.083333333333     0          
O2       O      0.260633333333     0.427300000000     0.044666666667     0          
C1       C      0.250000000000     0.416666666667     0.037100000000     0          
C2       C      0.250000000000     0.416666666667     0.017933333333     0          
C3       C      0.260966666667     0.427633333333     0.008966666667     0          
H1       H      0.268300000000     0.434966666667     0.014933333333     0          
Zn1      Zn     0.235533333333     0.597800000000     0.068866666667     0          
O1       O      0.250000000000     0.583333333333     0.083333333333     0          
O2       O      0.239366666667     0.593966666667     0.044666666667     0          
C1       C      0.250000000000     0.583333333333     0.037100000000     0          
C2       C      0.250000000000     0.583333333333     0.017933333333     0          
C3       C      0.239033333333     0.594300000000     0.008966666667     0          
H1       H      0.231700000000     0.601633333333     0.014933333333     0          
Zn1      Zn     0.068866666667     0.568866666667     0.068866666667     0          
O1       O      0.083333333333     0.583333333333     0.083333333333     0          
O2       O      0.072700000000     0.572700000000     0.044666666667     0          
C1       C      0.083333333333     0.583333333333     0.037100000000     0          
C2       C      0.083333333333     0.583333333333     0.017933333333     0          
C3       C      0.072366666667     0.572366666667     0.008966666667     0          
H1       H      0.065033333333     0.565033333333     0.014933333333     0          
Zn1      Zn     0.097800000000     0.597800000000     0.264466666667     0          
O1       O      0.083333333333     0.583333333333     0.250000000000     0          
O2       O      0.093966666667     0.593966666667     0.288666666667     0          
C1       C      0.083333333333     0.583333333333     0.296233333333     0          
C2       C      0.083333333333     0.583333333333     0.315400000000     0          
C3       C      0.094300000000     0.594300000000     0.324366666667     0          
H1       H      0.101633333333     0.601633333333     0.318400000000     0          
Zn1      Zn     0.068866666667     0.431133333333     0.264466666667     0          
O1       O      0.083333333333     0.416666666667     0.250000000000     0          
O2       O      0.072700000000     0.427300000000     0.288666666667     0          
C1       C      0.083333333333     0.416666666667     0.296233333333     0          
C2       C      0.083333333333     0.416666666667     0.315400000000     0          
C3       C      0.072366666667     0.427633333333     0.324366666667     0          
H1       H      0.065033333333     0.434966666667     0.318400000000     0          
Zn1      Zn     0.235533333333     0.402200000000     0.264466666667     0          
O1       O      0.250000000000     0.416666666667     0.250000000000     0          
O2       O      0.239366666667     0.406033333333     0.288666666667     0          
C1       C      0.250000000000     0.416666666667     0.296233333333     0          
C2       C      0.250000000000     0.416666666667     0.315400000000     0          
C3       C      0.239033333333     0.405700000000     0.324366666667     0          
H1       H      0.231700000000     0.398366666667     0.318400000000     0          
Zn1      Zn     0.264466666667     0.568866666667     0.264466666667     0          
O1       O      0.250000000000     0.583333333333     0.250000000000     0          
O2       O      0.260633333333     0.572700000000     0.288666666667     0          
C1       C      0.250000000000     0.583333333333     0.296233333333     0          
C2       C      0.250000000000     0.583333333333     0.315400000000     0          
C3       C      0.260966666667     0.572366666667     0.324366666667     0          
H1       H      0.268300000000     0.565033333333     0.318400000000     0          
Zn1      Zn     0.068866666667     0.431133333333     0.068866666667     0          
O2       O      0.044666666667     0.427300000000     0.072700000000     0          
C1       C      0.037100000000     0.416666666667     0.083333333333     0          
C2       C      0.017933333333     0.416666666667     0.083333333333     0          
C3       C      0.008966666667     0.427633333333     0.072366666667     0          
H1       H      0.014933333333     0.434966666667     0.065033333333     0          
Zn1      Zn     0.235533333333     0.402200000000     0.068866666667     0          
O2       O      0.239366666667     0.378000000000     0.072700000000     0          
C1       C      0.250000000000     0.370433333333     0.083333333333     0          
C2       C      0.250000000000     0.351266666667     0.083333333333     0          
C3       C      0.239033333333     0.342300000000     0.072366666667     0          
H1       H      0.231700000000     0.348266666667     0.065033333333     0          
Zn1      Zn     0.264466666667     0.568866666667     0.068866666667     0          
O2       O      0.288666666667     0.572700000000     0.072700000000     0          
C1       C      0.296233333333     0.583333333333     0.083333333333     0          
C2       C      0.315400000000     0.583333333333     0.083333333333     0          
C3       C      0.324366666667     0.572366666667     0.072366666667     0          
H1       H      0.318400000000     0.565033333333     0.065033333333     0          
Zn1      Zn     0.097800000000     0.597800000000     0.068866666667     0          
O2       O      0.093966666667     0.622000000000     0.072700000000     0          
C1       C      0.083333333333     0.629566666667     0.083333333333     0          
C2       C      0.083333333333     0.648733333333     0.083333333333     0          
C3       C      0.094300000000     0.657700000000     0.072366666667     0          
H1       H      0.101633333333     0.651733333333     0.065033333333     0          
Zn1      Zn     0.068866666667     0.568866666667     0.264466666667     0          
O2       O      0.044666666667     0.572700000000     0.260633333333     0          
C1       C      0.037100000000     0.583333333333     0.250000000000     0          
C2       C      0.017933333333     0.583333333333     0.250000000000     0          
C3       C      0.008966666667     0.572366666667     0.260966666667     0          
H1       H      0.014933333333     0.565033333333     0.268300000000     0          
Zn1      Zn     0.097800000000     0.402200000000     0.264466666667     0          
O2       O      0.093966666667     0.378000000000     0.260633333333     0          
C1       C      0.083333333333     0.370433333333     0.250000000000     0          
C2       C      0.083333333333     0.351266666667     0.250000000000     0          
C3       C      0.094300000000     0.342300000000     0.260966666667     0          
H1       H      0.101633333333     0.348266666667     0.268300000000     0          
Zn1      Zn     0.264466666667     0.431133333333     0.264466666667     0          
O2       O      0.288666666667     0.427300000000     0.260633333333     0          
C1       C      0.296233333333     0.416666666667     0.250000000000     0          
C2       C      0.315400000000     0.416666666667     0.250000000000     0          
C3       C      0.324366666667     0.427633333333     0.260966666667     0          
H1       H      0.318400000000     0.434966666667     0.268300000000     0          
Zn1      Zn     0.235533333333     0.597800000000     0.264466666667     0          
O2       O      0.239366666667     0.622000000000     0.260633333333     0          
C1       C      0.250000000000     0.629566666667     0.250000000000     0          
C2       C      0.250000000000     0.648733333333     0.250000000000     0          
C3       C      0.239033333333     0.657700000000     0.260966666667     0          
H1       H      0.231700000000     0.651733333333     0.268300000000     0          
Zn1      Zn     0.068866666667     0.402200000000     0.097800000000     0          
O2       O      0.072700000000     0.378000000000     0.093966666667     0          
C1       C      0.083333333333     0.370433333333     0.083333333333     0          
C2       C      0.083333333333     0.351266666667     0.083333333333     0          
C3       C      0.072366666667     0.342300000000     0.094300000000     0          
H1       H      0.065033333333     0.348266666667     0.101633333333     0          
Zn1      Zn     0.068866666667     0.597800000000     0.235533333333     0          
O2       O      0.072700000000     0.622000000000     0.239366666667     0          
C1       C      0.083333333333     0.629566666667     0.250000000000     0          
C2       C      0.083333333333     0.648733333333     0.250000000000     0          
C3       C      0.072366666667     0.657700000000     0.239033333333     0          
H1       H      0.065033333333     0.651733333333     0.231700000000     0          
Zn1      Zn     0.068866666667     0.402200000000     0.235533333333     0          
O2       O      0.044666666667     0.406033333333     0.239366666667     0          
C1       C      0.037100000000     0.416666666667     0.250000000000     0          
C2       C      0.017933333333     0.416666666667     0.250000000000     0          
C3       C      0.008966666667     0.405700000000     0.239033333333     0          
H1       H      0.014933333333     0.398366666667     0.231700000000     0          
Zn1      Zn     0.264466666667     0.402200000000     0.235533333333     0          
O2       O      0.260633333333     0.378000000000     0.239366666667     0          
C1       C      0.250000000000     0.370433333333     0.250000000000     0          
C2       C      0.250000000000     0.351266666667     0.250000000000     0          
C3       C      0.260966666667     0.342300000000     0.239033333333     0          
H1       H      0.268300000000     0.348266666667     0.231700000000     0          
Zn1      Zn     0.264466666667     0.597800000000     0.235533333333     0          
O2       O      0.288666666667     0.593966666667     0.239366666667     0          
C1       C      0.296233333333     0.583333333333     0.250000000000     0          
C2       C      0.315400000000     0.583333333333     0.250000000000     0          
C3       C      0.324366666667     0.594300000000     0.239033333333     0          
H1       H      0.318400000000     0.601633333333     0.231700000000     0          
Zn1      Zn     0.264466666667     0.597800000000     0.097800000000     0          
O2       O      0.260633333333     0.622000000000     0.093966666667     0          
C1       C      0.250000000000     0.629566666667     0.083333333333     0          
C2       C      0.250000000000     0.648733333333     0.083333333333     0          
C3       C      0.260966666667     0.657700000000     0.094300000000     0          
H1       H      0.268300000000     0.651733333333     0.101633333333     0          
Zn1      Zn     0.068866666667     0.597800000000     0.097800000000     0          
O2       O      0.044666666667     0.593966666667     0.093966666667     0          
C1       C      0.037100000000     0.583333333333     0.083333333333     0          
C2       C      0.017933333333     0.583333333333     0.083333333333     0          
C3       C      0.008966666667     0.594300000000     0.094300000000     0          
H1       H      0.014933333333     0.601633333333     0.101633333333     0          
Zn1      Zn     0.264466666667     0.402200000000     0.097800000000     0          
O2       O      0.288666666667     0.406033333333     0.093966666667     0          
C1       C      0.296233333333     0.416666666667     0.083333333333     0          
C2       C      0.315400000000     0.416666666667     0.083333333333     0          
C3       C      0.324366666667     0.405700000000     0.094300000000     0          
H1       H      0.318400000000     0.398366666667     0.101633333333     0          
O2       O      0.239366666667     0.593966666667     0.288666666667     0          
C3       C      0.239033333333     0.594300000000     0.324366666667     0          
H1       H      0.231700000000     0.601633333333     0.318400000000     0          
O2       O      0.072700000000     0.572700000000     0.288666666667     0          
C3       C      0.072366666667     0.572366666667     0.324366666667     0          
H1       H      0.065033333333     0.565033333333     0.318400000000     0          
O2       O      0.093966666667     0.406033333333     0.288666666667     0          
C3       C      0.094300000000     0.405700000000     0.324366666667     0          
H1       H      0.101633333333     0.398366666667     0.318400000000     0          
O2       O      0.260633333333     0.427300000000     0.288666666667     0          
C3       C      0.260966666667     0.427633333333     0.324366666667     0          
H1       H      0.268300000000     0.434966666667     0.318400000000     0          
O2       O      0.239366666667     0.406033333333     0.044666666667     0          
C3       C      0.239033333333     0.405700000000     0.008966666667     0          
H1       H      0.231700000000     0.398366666667     0.014933333333     0          
O2       O      0.260633333333     0.572700000000     0.044666666667     0          
C3       C      0.260966666667     0.572366666667     0.008966666667     0          
H1       H      0.268300000000     0.565033333333     0.014933333333     0          
O2       O      0.093966666667     0.593966666667     0.044666666667     0          
C3       C      0.094300000000     0.594300000000     0.008966666667     0          
H1       H      0.101633333333     0.601633333333     0.014933333333     0          
O2       O      0.072700000000     0.427300000000     0.044666666667     0          
C3       C      0.072366666667     0.427633333333     0.008966666667     0          
H1       H      0.065033333333     0.434966666667     0.014933333333     0          
O2       O      0.288666666667     0.572700000000     0.260633333333     0          
C3       C      0.324366666667     0.572366666667     0.260966666667     0          
H1       H      0.318400000000     0.565033333333     0.268300000000     0          
O2       O      0.093966666667     0.622000000000     0.260633333333     0          
C3       C      0.094300000000     0.657700000000     0.260966666667     0          
H1       H      0.101633333333     0.651733333333     0.268300000000     0          
O2       O      0.044666666667     0.427300000000     0.260633333333     0          
C3       C      0.008966666667     0.427633333333     0.260966666667     0          
H1       H      0.014933333333     0.434966666667     0.268300000000     0          
O2       O      0.239366666667     0.378000000000     0.260633333333     0          
C3       C      0.239033333333     0.342300000000     0.260966666667     0          
H1       H      0.231700000000     0.348266666667     0.268300000000     0          
O2       O      0.288666666667     0.427300000000     0.072700000000     0          
C3       C      0.324366666667     0.427633333333     0.072366666667     0          
H1       H      0.318400000000     0.434966666667     0.065033333333     0          
O2       O      0.239366666667     0.622000000000     0.072700000000     0          
C3       C      0.239033333333     0.657700000000     0.072366666667     0          
H1       H      0.231700000000     0.651733333333     0.065033333333     0          
O2       O      0.044666666667     0.572700000000     0.072700000000     0          
C3       C      0.008966666667     0.572366666667     0.072366666667     0          
H1       H      0.014933333333     0.565033333333     0.065033333333     0          
O2       O      0.093966666667     0.378000000000     0.072700000000     0          
C3       C      0.094300000000     0.342300000000     0.072366666667     0          
H1       H      0.101633333333     0.348266666667     0.065033333333     0          
O2       O      0.260633333333     0.622000000000     0.239366666667     0          
C3       C      0.260966666667     0.657700000000     0.239033333333     0          
H1       H      0.268300000000     0.651733333333     0.231700000000     0          
O2       O      0.260633333333     0.378000000000     0.093966666667     0          
C3       C      0.260966666667     0.342300000000     0.094300000000     0          
H1       H      0.268300000000     0.348266666667     0.101633333333     0          
O2       O      0.288666666667     0.593966666667     0.093966666667     0          
C3       C      0.324366666667     0.594300000000     0.094300000000     0          
H1       H      0.318400000000     0.601633333333     0.101633333333     0          
O2       O      0.072700000000     0.622000000000     0.093966666667     0          
C3       C      0.072366666667     0.657700000000     0.094300000000     0          
H1       H      0.065033333333     0.651733333333     0.101633333333     0          
O2       O      0.044666666667     0.406033333333     0.093966666667     0          
C3       C      0.008966666667     0.405700000000     0.094300000000     0          
H1       H      0.014933333333     0.398366666667     0.101633333333     0          
O2       O      0.072700000000     0.378000000000     0.239366666667     0          
C3       C      0.072366666667     0.342300000000     0.239033333333     0          
H1       H      0.065033333333     0.348266666667     0.231700000000     0          
O2       O      0.288666666667     0.406033333333     0.239366666667     0          
C3       C      0.324366666667     0.405700000000     0.239033333333     0          
H1       H      0.318400000000     0.398366666667     0.231700000000     0          
O2       O      0.044666666667     0.593966666667     0.239366666667     0          
C3       C      0.008966666667     0.594300000000     0.239033333333     0          
H1       H      0.014933333333     0.601633333333     0.231700000000     0          
Zn1      Zn     0.097800000000     0.568866666667     0.235533333333     0          
O2       O      0.093966666667     0.572700000000     0.211333333333     0          
C1       C      0.083333333333     0.583333333333     0.203766666667     0          
C2       C      0.083333333333     0.583333333333     0.184600000000     0          
C3       C      0.094300000000     0.572366666667     0.175633333333     0          
H1       H      0.101633333333     0.565033333333     0.181600000000     0          
O2       O      0.260633333333     0.593966666667     0.211333333333     0          
C1       C      0.250000000000     0.583333333333     0.203766666667     0          
C2       C      0.250000000000     0.583333333333     0.184600000000     0          
C3       C      0.260966666667     0.594300000000     0.175633333333     0          
H1       H      0.268300000000     0.601633333333     0.181600000000     0          
Zn1      Zn     0.235533333333     0.431133333333     0.235533333333     0          
O2       O      0.239366666667     0.427300000000     0.211333333333     0          
C1       C      0.250000000000     0.416666666667     0.203766666667     0          
C2       C      0.250000000000     0.416666666667     0.184600000000     0          
C3       C      0.239033333333     0.427633333333     0.175633333333     0          
H1       H      0.231700000000     0.434966666667     0.181600000000     0          
O2       O      0.072700000000     0.406033333333     0.211333333333     0          
C1       C      0.083333333333     0.416666666667     0.203766666667     0          
C2       C      0.083333333333     0.416666666667     0.184600000000     0          
C3       C      0.072366666667     0.405700000000     0.175633333333     0          
H1       H      0.065033333333     0.398366666667     0.181600000000     0          
Zn1      Zn     0.097800000000     0.431133333333     0.097800000000     0          
O2       O      0.093966666667     0.427300000000     0.122000000000     0          
C1       C      0.083333333333     0.416666666667     0.129566666667     0          
C2       C      0.083333333333     0.416666666667     0.148733333333     0          
C3       C      0.094300000000     0.427633333333     0.157700000000     0          
H1       H      0.101633333333     0.434966666667     0.151733333333     0          
O2       O      0.072700000000     0.593966666667     0.122000000000     0          
C1       C      0.083333333333     0.583333333333     0.129566666667     0          
C2       C      0.083333333333     0.583333333333     0.148733333333     0          
C3       C      0.072366666667     0.594300000000     0.157700000000     0          
H1       H      0.065033333333     0.601633333333     0.151733333333     0          
Zn1      Zn     0.235533333333     0.568866666667     0.097800000000     0          
O2       O      0.239366666667     0.572700000000     0.122000000000     0          
C1       C      0.250000000000     0.583333333333     0.129566666667     0          
C2       C      0.250000000000     0.583333333333     0.148733333333     0          
C3       C      0.239033333333     0.572366666667     0.157700000000     0          
H1       H      0.231700000000     0.565033333333     0.151733333333     0          
O2       O      0.260633333333     0.406033333333     0.122000000000     0          
C1       C      0.250000000000     0.416666666667     0.129566666667     0          
C2       C      0.250000000000     0.416666666667     0.148733333333     0          
C3       C      0.260966666667     0.405700000000     0.157700000000     0          
H1       H      0.268300000000     0.398366666667     0.151733333333     0          
Zn1      Zn     0.235533333333     0.568866666667     0.235533333333     0          
O2       O      0.239366666667     0.544666666667     0.239366666667     0          
C1       C      0.250000000000     0.537100000000     0.250000000000     0          
C2       C      0.250000000000     0.517933333333     0.250000000000     0          
C3       C      0.239033333333     0.508966666667     0.239033333333     0          
H1       H      0.231700000000     0.514933333333     0.231700000000     0          
Zn1      Zn     0.097800000000     0.431133333333     0.235533333333     0          
O2       O      0.093966666667     0.455333333333     0.239366666667     0          
C1       C      0.083333333333     0.462900000000     0.250000000000     0          
C2       C      0.083333333333     0.482066666667     0.250000000000     0          
C3       C      0.094300000000     0.491033333333     0.239033333333     0          
H1       H      0.101633333333     0.485066666667     0.231700000000     0          
Zn1      Zn     0.097800000000     0.568866666667     0.097800000000     0          
O2       O      0.093966666667     0.544666666667     0.093966666667     0          
C1       C      0.083333333333     0.537100000000     0.083333333333     0          
C2       C      0.083333333333     0.517933333333     0.083333333333     0          
C3       C      0.094300000000     0.508966666667     0.094300000000     0          
H1       H      0.101633333333     0.514933333333     0.101633333333     0          
Zn1      Zn     0.235533333333     0.431133333333     0.097800000000     0          
O2       O      0.239366666667     0.455333333333     0.093966666667     0          
C1       C      0.250000000000     0.462900000000     0.083333333333     0          
C2       C      0.250000000000     0.482066666667     0.083333333333     0          
C3       C      0.239033333333     0.491033333333     0.094300000000     0          
H1       H      0.231700000000     0.485066666667     0.101633333333     0          
O2       O      0.072700000000     0.544666666667     0.260633333333     0          
C1       C      0.083333333333     0.537100000000     0.250000000000     0          
C2       C      0.083333333333     0.517933333333     0.250000000000     0          
C3       C      0.072366666667     0.508966666667     0.260966666667     0          
H1       H      0.065033333333     0.514933333333     0.268300000000     0          
O2       O      0.072700000000     0.455333333333     0.072700000000     0          
C1       C      0.083333333333     0.462900000000     0.083333333333     0          
C2       C      0.083333333333     0.482066666667     0.083333333333     0          
C3       C      0.072366666667     0.491033333333     0.072366666667     0          
H1       H      0.065033333333     0.485066666667     0.065033333333     0          
O2       O      0.260633333333     0.544666666667     0.072700000000     0          
C1       C      0.250000000000     0.537100000000     0.083333333333     0          
C2       C      0.250000000000     0.517933333333     0.083333333333     0          
C3       C      0.260966666667     0.508966666667     0.072366666667     0          
H1       H      0.268300000000     0.514933333333     0.065033333333     0          
O2       O      0.260633333333     0.455333333333     0.260633333333     0          
C1       C      0.250000000000     0.462900000000     0.250000000000     0          
C2       C      0.250000000000     0.482066666667     0.250000000000     0          
C3       C      0.260966666667     0.491033333333     0.260966666667     0          
H1       H      0.268300000000     0.485066666667     0.268300000000     0          
O2       O      0.239366666667     0.427300000000     0.122000000000     0          
C3       C      0.239033333333     0.427633333333     0.157700000000     0          
H1       H      0.231700000000     0.434966666667     0.151733333333     0          
O2       O      0.072700000000     0.406033333333     0.122000000000     0          
C3       C      0.072366666667     0.405700000000     0.157700000000     0          
H1       H      0.065033333333     0.398366666667     0.151733333333     0          
O2       O      0.093966666667     0.572700000000     0.122000000000     0          
C3       C      0.094300000000     0.572366666667     0.157700000000     0          
H1       H      0.101633333333     0.565033333333     0.151733333333     0          
O2       O      0.260633333333     0.593966666667     0.122000000000     0          
C3       C      0.260966666667     0.594300000000     0.157700000000     0          
H1       H      0.268300000000     0.601633333333     0.151733333333     0          
O2       O      0.239366666667     0.572700000000     0.211333333333     0          
C3       C      0.239033333333     0.572366666667     0.175633333333     0          
H1       H      0.231700000000     0.565033333333     0.181600000000     0          
O2       O      0.260633333333     0.406033333333     0.211333333333     0          
C3       C      0.260966666667     0.405700000000     0.175633333333     0          
H1       H      0.268300000000     0.398366666667     0.181600000000     0          
O2       O      0.093966666667     0.427300000000     0.211333333333     0          
C3       C      0.094300000000     0.427633333333     0.175633333333     0          
H1       H      0.101633333333     0.434966666667     0.181600000000     0          
O2       O      0.072700000000     0.593966666667     0.211333333333     0          
C3       C      0.072366666667     0.594300000000     0.175633333333     0          
H1       H      0.065033333333     0.601633333333     0.181600000000     0          
O2       O      0.093966666667     0.455333333333     0.093966666667     0          
C3       C      0.094300000000     0.491033333333     0.094300000000     0          
H1       H      0.101633333333     0.485066666667     0.101633333333     0          
O2       O      0.239366666667     0.544666666667     0.093966666667     0          
C3       C      0.239033333333     0.508966666667     0.094300000000     0          
H1       H      0.231700000000     0.514933333333     0.101633333333     0          
O2       O      0.239366666667     0.455333333333     0.239366666667     0          
C3       C      0.239033333333     0.491033333333     0.239033333333     0          
H1       H      0.231700000000     0.485066666667     0.231700000000     0          
O2       O      0.093966666667     0.544666666667     0.239366666667     0          
C3       C      0.094300000000     0.508966666667     0.239033333333     0          
H1       H      0.101633333333     0.514933333333     0.231700000000     0          
O2       O      0.260633333333     0.455333333333     0.072700000000     0          
C3       C      0.260966666667     0.491033333333     0.072366666667     0          
H1       H      0.268300000000     0.485066666667     0.065033333333     0          
O2       O      0.260633333333     0.544666666667     0.260633333333     0          
C3       C      0.260966666667     0.508966666667     0.260966666667     0          
H1       H      0.268300000000     0.514933333333     0.268300000000     0          
O2       O      0.072700000000     0.455333333333     0.260633333333     0          
C3       C      0.072366666667     0.491033333333     0.260966666667     0          
H1       H      0.065033333333     0.485066666667     0.268300000000     0          
O2       O      0.072700000000     0.544666666667     0.072700000000     0          
C3       C      0.072366666667     0.508966666667     0.072366666667     0          
H1       H      0.065033333333     0.514933333333     0.065033333333     0          
O2       O      0.211333333333     0.427300000000     0.239366666667     0          
C1       C      0.203766666667     0.416666666667     0.250000000000     0          
C2       C      0.184600000000     0.416666666667     0.250000000000     0          
C3       C      0.175633333333     0.427633333333     0.239033333333     0          
H1       H      0.181600000000     0.434966666667     0.231700000000     0          
O2       O      0.122000000000     0.572700000000     0.239366666667     0          
C1       C      0.129566666667     0.583333333333     0.250000000000     0          
C2       C      0.148733333333     0.583333333333     0.250000000000     0          
C3       C      0.157700000000     0.572366666667     0.239033333333     0          
H1       H      0.151733333333     0.565033333333     0.231700000000     0          
O2       O      0.211333333333     0.572700000000     0.093966666667     0          
C1       C      0.203766666667     0.583333333333     0.083333333333     0          
C2       C      0.184600000000     0.583333333333     0.083333333333     0          
C3       C      0.175633333333     0.572366666667     0.094300000000     0          
H1       H      0.181600000000     0.565033333333     0.101633333333     0          
O2       O      0.122000000000     0.427300000000     0.093966666667     0          
C1       C      0.129566666667     0.416666666667     0.083333333333     0          
C2       C      0.148733333333     0.416666666667     0.083333333333     0          
C3       C      0.157700000000     0.427633333333     0.094300000000     0          
H1       H      0.151733333333     0.434966666667     0.101633333333     0          
O2       O      0.211333333333     0.406033333333     0.072700000000     0          
C1       C      0.203766666667     0.416666666667     0.083333333333     0          
C2       C      0.184600000000     0.416666666667     0.083333333333     0          
C3       C      0.175633333333     0.405700000000     0.072366666667     0          
H1       H      0.181600000000     0.398366666667     0.065033333333     0          
O2       O      0.122000000000     0.593966666667     0.072700000000     0          
C1       C      0.129566666667     0.583333333333     0.083333333333     0          
C2       C      0.148733333333     0.583333333333     0.083333333333     0          
C3       C      0.157700000000     0.594300000000     0.072366666667     0          
H1       H      0.151733333333     0.601633333333     0.065033333333     0          
O2       O      0.211333333333     0.593966666667     0.260633333333     0          
C1       C      0.203766666667     0.583333333333     0.250000000000     0          
C2       C      0.184600000000     0.583333333333     0.250000000000     0          
C3       C      0.175633333333     0.594300000000     0.260966666667     0          
H1       H      0.181600000000     0.601633333333     0.268300000000     0          
O2       O      0.122000000000     0.406033333333     0.260633333333     0          
C1       C      0.129566666667     0.416666666667     0.250000000000     0          
C2       C      0.148733333333     0.416666666667     0.250000000000     0          
C3       C      0.157700000000     0.405700000000     0.260966666667     0          
H1       H      0.151733333333     0.398366666667     0.268300000000     0          
O2       O      0.122000000000     0.572700000000     0.093966666667     0          
C3       C      0.157700000000     0.572366666667     0.094300000000     0          
H1       H      0.151733333333     0.565033333333     0.101633333333     0          
O2       O      0.211333333333     0.427300000000     0.093966666667     0          
C3       C      0.175633333333     0.427633333333     0.094300000000     0          
H1       H      0.181600000000     0.434966666667     0.101633333333     0          
O2       O      0.122000000000     0.427300000000     0.239366666667     0          
C3       C      0.157700000000     0.427633333333     0.239033333333     0          
H1       H      0.151733333333     0.434966666667     0.231700000000     0          
O2       O      0.211333333333     0.572700000000     0.239366666667     0          
C3       C      0.175633333333     0.572366666667     0.239033333333     0          
H1       H      0.181600000000     0.565033333333     0.231700000000     0          
O2       O      0.122000000000     0.593966666667     0.260633333333     0          
C3       C      0.157700000000     0.594300000000     0.260966666667     0          
H1       H      0.151733333333     0.601633333333     0.268300000000     0          
O2       O      0.211333333333     0.406033333333     0.260633333333     0          
C3       C      0.175633333333     0.405700000000     0.260966666667     0          
H1       H      0.181600000000     0.398366666667     0.268300000000     0          
O2       O      0.122000000000     0.406033333333     0.072700000000     0          
C3       C      0.157700000000     0.405700000000     0.072366666667     0          
H1       H      0.151733333333     0.398366666667     0.065033333333     0          
O2       O      0.211333333333     0.593966666667     0.072700000000     0          
C3       C      0.175633333333     0.594300000000     0.072366666667     0          
H1       H      0.181600000000     0.601633333333     0.065033333333     0          
Zn1      Zn     0.097800000000     0.402200000000     0.402200000000     0          
O1       O      0.083333333333     0.416666666667     0.416666666667     0          
O2       O      0.093966666667     0.406033333333     0.378000000000     0          
C1       C      0.083333333333     0.416666666667     0.370433333333     0          
C2       C      0.083333333333     0.416666666667     0.351266666667     0          
C3       C      0.094300000000     0.405700000000     0.342300000000     0          
H1       H      0.101633333333     0.398366666667     0.348266666667     0          
Zn1      Zn     0.264466666667     0.431133333333     0.402200000000     0          
O1       O      0.250000000000     0.416666666667     0.416666666667     0          
O2       O      0.260633333333     0.427300000000     0.378000000000     0          
C1       C      0.250000000000     0.416666666667     0.370433333333     0          
C2       C      0.250000000000     0.416666666667     0.351266666667     0          
C3       C      0.260966666667     0.427633333333     0.342300000000     0          
H1       H      0.268300000000     0.434966666667     0.348266666667     0          
Zn1      Zn     0.235533333333     0.597800000000     0.402200000000     0          
O1       O      0.250000000000     0.583333333333     0.416666666667     0          
O2       O      0.239366666667     0.593966666667     0.378000000000     0          
C1       C      0.250000000000     0.583333333333     0.370433333333     0          
C2       C      0.250000000000     0.583333333333     0.351266666667     0          
C3       C      0.239033333333     0.594300000000     0.342300000000     0          
H1       H      0.231700000000     0.601633333333     0.348266666667     0          
Zn1      Zn     0.068866666667     0.568866666667     0.402200000000     0          
O1       O      0.083333333333     0.583333333333     0.416666666667     0          
O2       O      0.072700000000     0.572700000000     0.378000000000     0          
C1       C      0.083333333333     0.583333333333     0.370433333333     0          
C2       C      0.083333333333     0.583333333333     0.351266666667     0          
C3       C      0.072366666667     0.572366666667     0.342300000000     0          
H1       H      0.065033333333     0.565033333333     0.348266666667     0          
Zn1      Zn     0.097800000000     0.597800000000     0.597800000000     0          
O1       O      0.083333333333     0.583333333333     0.583333333333     0          
O2       O      0.093966666667     0.593966666667     0.622000000000     0          
C1       C      0.083333333333     0.583333333333     0.629566666667     0          
C2       C      0.083333333333     0.583333333333     0.648733333333     0          
C3       C      0.094300000000     0.594300000000     0.657700000000     0          
H1       H      0.101633333333     0.601633333333     0.651733333333     0          
Zn1      Zn     0.068866666667     0.431133333333     0.597800000000     0          
O1       O      0.083333333333     0.416666666667     0.583333333333     0          
O2       O      0.072700000000     0.427300000000     0.622000000000     0          
C1       C      0.083333333333     0.416666666667     0.629566666667     0          
C2       C      0.083333333333     0.416666666667     0.648733333333     0          
C3       C      0.072366666667     0.427633333333     0.657700000000     0          
H1       H      0.065033333333     0.434966666667     0.651733333333     0          
Zn1      Zn     0.235533333333     0.402200000000     0.597800000000     0          
O1       O      0.250000000000     0.416666666667     0.583333333333     0          
O2       O      0.239366666667     0.406033333333     0.622000000000     0          
C1       C      0.250000000000     0.416666666667     0.629566666667     0          
C2       C      0.250000000000     0.416666666667     0.648733333333     0          
C3       C      0.239033333333     0.405700000000     0.657700000000     0          
H1       H      0.231700000000     0.398366666667     0.651733333333     0          
Zn1      Zn     0.264466666667     0.568866666667     0.597800000000     0          
O1       O      0.250000000000     0.583333333333     0.583333333333     0          
O2       O      0.260633333333     0.572700000000     0.622000000000     0          
C1       C      0.250000000000     0.583333333333     0.629566666667     0          
C2       C      0.250000000000     0.583333333333     0.648733333333     0          
C3       C      0.260966666667     0.572366666667     0.657700000000     0          
H1       H      0.268300000000     0.565033333333     0.651733333333     0          
Zn1      Zn     0.068866666667     0.431133333333     0.402200000000     0          
O2       O      0.044666666667     0.427300000000     0.406033333333     0          
C1       C      0.037100000000     0.416666666667     0.416666666667     0          
C2       C      0.017933333333     0.416666666667     0.416666666667     0          
C3       C      0.008966666667     0.427633333333     0.405700000000     0          
H1       H      0.014933333333     0.434966666667     0.398366666667     0          
Zn1      Zn     0.235533333333     0.402200000000     0.402200000000     0          
O2       O      0.239366666667     0.378000000000     0.406033333333     0          
C1       C      0.250000000000     0.370433333333     0.416666666667     0          
C2       C      0.250000000000     0.351266666667     0.416666666667     0          
C3       C      0.239033333333     0.342300000000     0.405700000000     0          
H1       H      0.231700000000     0.348266666667     0.398366666667     0          
Zn1      Zn     0.264466666667     0.568866666667     0.402200000000     0          
O2       O      0.288666666667     0.572700000000     0.406033333333     0          
C1       C      0.296233333333     0.583333333333     0.416666666667     0          
C2       C      0.315400000000     0.583333333333     0.416666666667     0          
C3       C      0.324366666667     0.572366666667     0.405700000000     0          
H1       H      0.318400000000     0.565033333333     0.398366666667     0          
Zn1      Zn     0.097800000000     0.597800000000     0.402200000000     0          
O2       O      0.093966666667     0.622000000000     0.406033333333     0          
C1       C      0.083333333333     0.629566666667     0.416666666667     0          
C2       C      0.083333333333     0.648733333333     0.416666666667     0          
C3       C      0.094300000000     0.657700000000     0.405700000000     0          
H1       H      0.101633333333     0.651733333333     0.398366666667     0          
Zn1      Zn     0.068866666667     0.568866666667     0.597800000000     0          
O2       O      0.044666666667     0.572700000000     0.593966666667     0          
C1       C      0.037100000000     0.583333333333     0.583333333333     0          
C2       C      0.017933333333     0.583333333333     0.583333333333     0          
C3       C      0.008966666667     0.572366666667     0.594300000000     0          
H1       H      0.014933333333     0.565033333333     0.601633333333     0          
Zn1      Zn     0.097800000000     0.402200000000     0.597800000000     0          
O2       O      0.093966666667     0.378000000000     0.593966666667     0          
C1       C      0.083333333333     0.370433333333     0.583333333333     0          
C2       C      0.083333333333     0.351266666667     0.583333333333     0          
C3       C      0.094300000000     0.342300000000     0.594300000000     0          
H1       H      0.101633333333     0.348266666667     0.601633333333     0          
Zn1      Zn     0.264466666667     0.431133333333     0.597800000000     0          
O2       O      0.288666666667     0.427300000000     0.593966666667     0          
C1       C      0.296233333333     0.416666666667     0.583333333333     0          
C2       C      0.315400000000     0.416666666667     0.583333333333     0          
C3       C      0.324366666667     0.427633333333     0.594300000000     0          
H1       H      0.318400000000     0.434966666667     0.601633333333     0          
Zn1      Zn     0.235533333333     0.597800000000     0.597800000000     0          
O2       O      0.239366666667     0.622000000000     0.593966666667     0          
C1       C      0.250000000000     0.629566666667     0.583333333333     0          
C2       C      0.250000000000     0.648733333333     0.583333333333     0          
C3       C      0.239033333333     0.657700000000     0.594300000000     0          
H1       H      0.231700000000     0.651733333333     0.601633333333     0          
Zn1      Zn     0.068866666667     0.402200000000     0.431133333333     0          
O2       O      0.072700000000     0.378000000000     0.427300000000     0          
C1       C      0.083333333333     0.370433333333     0.416666666667     0          
C2       C      0.083333333333     0.351266666667     0.416666666667     0          
C3       C      0.072366666667     0.342300000000     0.427633333333     0          
H1       H      0.065033333333     0.348266666667     0.434966666667     0          
Zn1      Zn     0.068866666667     0.597800000000     0.568866666667     0          
O2       O      0.072700000000     0.622000000000     0.572700000000     0          
C1       C      0.083333333333     0.629566666667     0.583333333333     0          
C2       C      0.083333333333     0.648733333333     0.583333333333     0          
C3       C      0.072366666667     0.657700000000     0.572366666667     0          
H1       H      0.065033333333     0.651733333333     0.565033333333     0          
Zn1      Zn     0.068866666667     0.402200000000     0.568866666667     0          
O2       O      0.044666666667     0.406033333333     0.572700000000     0          
C1       C      0.037100000000     0.416666666667     0.583333333333     0          
C2       C      0.017933333333     0.416666666667     0.583333333333     0          
C3       C      0.008966666667     0.405700000000     0.572366666667     0          
H1       H      0.014933333333     0.398366666667     0.565033333333     0          
Zn1      Zn     0.264466666667     0.402200000000     0.568866666667     0          
O2       O      0.260633333333     0.378000000000     0.572700000000     0          
C1       C      0.250000000000     0.370433333333     0.583333333333     0          
C2       C      0.250000000000     0.351266666667     0.583333333333     0          
C3       C      0.260966666667     0.342300000000     0.572366666667     0          
H1       H      0.268300000000     0.348266666667     0.565033333333     0          
Zn1      Zn     0.264466666667     0.597800000000     0.568866666667     0          
O2       O      0.288666666667     0.593966666667     0.572700000000     0          
C1       C      0.296233333333     0.583333333333     0.583333333333     0          
C2       C      0.315400000000     0.583333333333     0.583333333333     0          
C3       C      0.324366666667     0.594300000000     0.572366666667     0          
H1       H      0.318400000000     0.601633333333     0.565033333333     0          
Zn1      Zn     0.264466666667     0.597800000000     0.431133333333     0          
O2       O      0.260633333333     0.622000000000     0.427300000000     0          
C1       C      0.250000000000     0.629566666667     0.416666666667     0          
C2       C      0.250000000000     0.648733333333     0.416666666667     0          
C3       C      0.260966666667     0.657700000000     0.427633333333     0          
H1       H      0.268300000000     0.651733333333     0.434966666667     0          
Zn1      Zn     0.068866666667     0.597800000000     0.431133333333     0          
O2       O      0.044666666667     0.593966666667     0.427300000000     0          
C1       C      0.037100000000     0.583333333333     0.416666666667     0          
C2       C      0.017933333333     0.583333333333     0.416666666667     0          
C3       C      0.008966666667     0.594300000000     0.427633333333     0          
H1       H      0.014933333333     0.601633333333     0.434966666667     0          
Zn1      Zn     0.264466666667     0.402200000000     0.431133333333     0          
O2       O      0.288666666667     0.406033333333     0.427300000000     0          
C1       C      0.296233333333     0.416666666667     0.416666666667     0          
C2       C      0.315400000000     0.416666666667     0.416666666667     0          
C3       C      0.324366666667     0.405700000000     0.427633333333     0          
H1       H      0.318400000000     0.398366666667     0.434966666667     0          
O2       O      0.239366666667     0.593966666667     0.622000000000     0          
C3       C      0.239033333333     0.594300000000     0.657700000000     0          
H1       H      0.231700000000     0.601633333333     0.651733333333     0          
O2       O      0.072700000000     0.572700000000     0.622000000000     0          
C3       C      0.072366666667     0.572366666667     0.657700000000     0          
H1       H      0.065033333333     0.565033333333     0.651733333333     0          
O2       O      0.093966666667     0.406033333333     0.622000000000     0          
C3       C      0.094300000000     0.405700000000     0.657700000000     0          
H1       H      0.101633333333     0.398366666667     0.651733333333     0          
O2       O      0.260633333333     0.427300000000     0.622000000000     0          
C3       C      0.260966666667     0.427633333333     0.657700000000     0          
H1       H      0.268300000000     0.434966666667     0.651733333333     0          
O2       O      0.239366666667     0.406033333333     0.378000000000     0          
C3       C      0.239033333333     0.405700000000     0.342300000000     0          
H1       H      0.231700000000     0.398366666667     0.348266666667     0          
O2       O      0.260633333333     0.572700000000     0.378000000000     0          
C3       C      0.260966666667     0.572366666667     0.342300000000     0          
H1       H      0.268300000000     0.565033333333     0.348266666667     0          
O2       O      0.093966666667     0.593966666667     0.378000000000     0          
C3       C      0.094300000000     0.594300000000     0.342300000000     0          
H1       H      0.101633333333     0.601633333333     0.348266666667     0          
O2       O      0.072700000000     0.427300000000     0.378000000000     0          
C3       C      0.072366666667     0.427633333333     0.342300000000     0          
H1       H      0.065033333333     0.434966666667     0.348266666667     0          
O2       O      0.288666666667     0.572700000000     0.593966666667     0          
C3       C      0.324366666667     0.572366666667     0.594300000000     0          
H1       H      0.318400000000     0.565033333333     0.601633333333     0          
O2       O      0.093966666667     0.622000000000     0.593966666667     0          
C3       C      0.094300000000     0.657700000000     0.594300000000     0          
H1       H      0.101633333333     0.651733333333     0.601633333333     0          
O2       O      0.044666666667     0.427300000000     0.593966666667     0          
C3       C      0.008966666667     0.427633333333     0.594300000000     0          
H1       H      0.014933333333     0.434966666667     0.601633333333     0          
O2       O      0.239366666667     0.378000000000     0.593966666667     0          
C3       C      0.239033333333     0.342300000000     0.594300000000     0          
H1       H      0.231700000000     0.348266666667     0.601633333333     0          
O2       O      0.288666666667     0.427300000000     0.406033333333     0          
C3       C      0.324366666667     0.427633333333     0.405700000000     0          
H1       H      0.318400000000     0.434966666667     0.398366666667     0          
O2       O      0.239366666667     0.622000000000     0.406033333333     0          
C3       C      0.239033333333     0.657700000000     0.405700000000     0          
H1       H      0.231700000000     0.651733333333     0.398366666667     0          
O2       O      0.044666666667     0.572700000000     0.406033333333     0          
C3       C      0.008966666667     0.572366666667     0.405700000000     0          
H1       H      0.014933333333     0.565033333333     0.398366666667     0          
O2       O      0.093966666667     0.378000000000     0.406033333333     0          
C3       C      0.094300000000     0.342300000000     0.405700000000     0          
H1       H      0.101633333333     0.348266666667     0.398366666667     0          
O2       O      0.260633333333     0.622000000000     0.572700000000     0          
C3       C      0.260966666667     0.657700000000     0.572366666667     0          
H1       H      0.268300000000     0.651733333333     0.565033333333     0          
O2       O      0.260633333333     0.378000000000     0.427300000000     0          
C3       C      0.260966666667     0.342300000000     0.427633333333     0          
H1       H      0.268300000000     0.348266666667     0.434966666667     0          
O2       O      0.288666666667     0.593966666667     0.427300000000     0          
C3       C      0.324366666667     0.594300000000     0.427633333333     0          
H1       H      0.318400000000     0.601633333333     0.434966666667     0          
O2       O      0.072700000000     0.622000000000     0.427300000000     0          
C3       C      0.072366666667     0.657700000000     0.427633333333     0          
H1       H      0.065033333333     0.651733333333     0.434966666667     0          
O2       O      0.044666666667     0.406033333333     0.427300000000     0          
C3       C      0.008966666667     0.405700000000     0.427633333333     0          
H1       H      0.014933333333     0.398366666667     0.434966666667     0          
O2       O      0.072700000000     0.378000000000     0.572700000000     0          
C3       C      0.072366666667     0.342300000000     0.572366666667     0          
H1       H      0.065033333333     0.348266666667     0.565033333333     0          
O2       O      0.288666666667     0.406033333333     0.572700000000     0          
C3       C      0.324366666667     0.405700000000     0.572366666667     0          
H1       H      0.318400000000     0.398366666667     0.565033333333     0          
O2       O      0.044666666667     0.593966666667     0.572700000000     0          
C3       C      0.008966666667     0.594300000000     0.572366666667     0          
H1       H      0.014933333333     0.601633333333     0.565033333333     0          
Zn1      Zn     0.097800000000     0.568866666667     0.568866666667     0          
O2       O      0.093966666667     0.572700000000     0.544666666667     0          
C1       C      0.083333333333     0.583333333333     0.537100000000     0          
C2       C      0.083333333333     0.583333333333     0.517933333333     0          
C3       C      0.094300000000     0.572366666667     0.508966666667     0          
H1       H      0.101633333333     0.565033333333     0.514933333333     0          
O2       O      0.260633333333     0.593966666667     0.544666666667     0          
C1       C      0.250000000000     0.583333333333     0.537100000000     0          
C2       C      0.250000000000     0.583333333333     0.517933333333     0          
C3       C      0.260966666667     0.594300000000     0.508966666667     0          
H1       H      0.268300000000     0.601633333333     0.514933333333     0          
Zn1      Zn     0.235533333333     0.431133333333     0.568866666667     0          
O2       O      0.239366666667     0.427300000000     0.544666666667     0          
C1       C      0.250000000000     0.416666666667     0.537100000000     0          
C2       C      0.250000000000     0.416666666667     0.517933333333     0          
C3       C      0.239033333333     0.427633333333     0.508966666667     0          
H1       H      0.231700000000     0.434966666667     0.514933333333     0          
O2       O      0.072700000000     0.406033333333     0.544666666667     0          
C1       C      0.083333333333     0.416666666667     0.537100000000     0          
C2       C      0.083333333333     0.416666666667     0.517933333333     0          
C3       C      0.072366666667     0.405700000000     0.508966666667     0          
H1       H      0.065033333333     0.398366666667     0.514933333333     0          
Zn1      Zn     0.097800000000     0.431133333333     0.431133333333     0          
O2       O      0.093966666667     0.427300000000     0.455333333333     0          
C1       C      0.083333333333     0.416666666667     0.462900000000     0          
C2       C      0.083333333333     0.416666666667     0.482066666667     0          
C3       C      0.094300000000     0.427633333333     0.491033333333     0          
H1       H      0.101633333333     0.434966666667     0.485066666667     0          
O2       O      0.072700000000     0.593966666667     0.455333333333     0          
C1       C      0.083333333333     0.583333333333     0.462900000000     0          
C2       C      0.083333333333     0.583333333333     0.482066666667     0          
C3       C      0.072366666667     0.594300000000     0.491033333333     0          
H1       H      0.065033333333     0.601633333333     0.485066666667     0          
Zn1      Zn     0.235533333333     0.568866666667     0.431133333333     0          
O2       O      0.239366666667     0.572700000000     0.455333333333     0          
C1       C      0.250000000000     0.583333333333     0.462900000000     0          
C2       C      0.250000000000     0.583333333333     0.482066666667     0          
C3       C      0.239033333333     0.572366666667     0.491033333333     0          
H1       H      0.231700000000     0.565033333333     0.485066666667     0          
O2       O      0.260633333333     0.406033333333     0.455333333333     0          
C1       C      0.250000000000     0.416666666667     0.462900000000     0          
C2       C      0.250000000000     0.416666666667     0.482066666667     0          
C3       C      0.260966666667     0.405700000000     0.491033333333     0          
H1       H      0.268300000000     0.398366666667     0.485066666667     0          
Zn1      Zn     0.235533333333     0.568866666667     0.568866666667     0          
O2       O      0.239366666667     0.544666666667     0.572700000000     0          
C1       C      0.250000000000     0.537100000000     0.583333333333     0          
C2       C      0.250000000000     0.517933333333     0.583333333333     0          
C3       C      0.239033333333     0.508966666667     0.572366666667     0          
H1       H      0.231700000000     0.514933333333     0.565033333333     0          
Zn1      Zn     0.097800000000     0.431133333333     0.568866666667     0          
O2       O      0.093966666667     0.455333333333     0.572700000000     0          
C1       C      0.083333333333     0.462900000000     0.583333333333     0          
C2       C      0.083333333333     0.482066666667     0.583333333333     0          
C3       C      0.094300000000     0.491033333333     0.572366666667     0          
H1       H      0.101633333333     0.485066666667     0.565033333333     0          
Zn1      Zn     0.097800000000     0.568866666667     0.431133333333     0          
O2       O      0.093966666667     0.544666666667     0.427300000000     0          
C1       C      0.083333333333     0.537100000000     0.416666666667     0          
C2       C      0.083333333333     0.517933333333     0.416666666667     0          
C3       C      0.094300000000     0.508966666667     0.427633333333     0          
H1       H      0.101633333333     0.514933333333     0.434966666667     0          
Zn1      Zn     0.235533333333     0.431133333333     0.431133333333     0          
O2       O      0.239366666667     0.455333333333     0.427300000000     0          
C1       C      0.250000000000     0.462900000000     0.416666666667     0          
C2       C      0.250000000000     0.482066666667     0.416666666667     0          
C3       C      0.239033333333     0.491033333333     0.427633333333     0          
H1       H      0.231700000000     0.485066666667     0.434966666667     0          
O2       O      0.072700000000     0.544666666667     0.593966666667     0          
C1       C      0.083333333333     0.537100000000     0.583333333333     0          
C2       C      0.083333333333     0.517933333333     0.583333333333     0          
C3       C      0.072366666667     0.508966666667     0.594300000000     0          
H1       H      0.065033333333     0.514933333333     0.601633333333     0          
O2       O      0.072700000000     0.455333333333     0.406033333333     0          
C1       C      0.083333333333     0.462900000000     0.416666666667     0          
C2       C      0.083333333333     0.482066666667     0.416666666667     0          
C3       C      0.072366666667     0.491033333333     0.405700000000     0          
H1       H      0.065033333333     0.485066666667     0.398366666667     0          
O2       O      0.260633333333     0.544666666667     0.406033333333     0          
C1       C      0.250000000000     0.537100000000     0.416666666667     0          
C2       C      0.250000000000     0.517933333333     0.416666666667     0          
C3       C      0.260966666667     0.508966666667     0.405700000000     0          
H1       H      0.268300000000     0.514933333333     0.398366666667     0          
O2       O      0.260633333333     0.455333333333     0.593966666667     0          
C1       C      0.250000000000     0.462900000000     0.583333333333     0          
C2       C      0.250000000000     0.482066666667     0.583333333333     0          
C3       C      0.260966666667     0.491033333333     0.594300000000     0          
H1       H      0.268300000000     0.485066666667     0.601633333333     0          
O2       O      0.239366666667     0.427300000000     0.455333333333     0          
C3       C      0.239033333333     0.427633333333     0.491033333333     0          
H1       H      0.231700000000     0.434966666667     0.485066666667     0          
O2       O      0.072700000000     0.406033333333     0.455333333333     0          
C3       C      0.072366666667     0.405700000000     0.491033333333     0          
H1       H      0.065033333333     0.398366666667     0.485066666667     0          
O2       O      0.093966666667     0.572700000000     0.455333333333     0          
C3       C      0.094300000000     0.572366666667     0.491033333333     0          
H1       H      0.101633333333     0.565033333333     0.485066666667     0          
O2       O      0.260633333333     0.593966666667     0.455333333333     0          
C3       C      0.260966666667     0.594300000000     0.491033333333     0          
H1       H      0.268300000000     0.601633333333     0.485066666667     0          
O2       O      0.239366666667     0.572700000000     0.544666666667     0          
C3       C      0.239033333333     0.572366666667     0.508966666667     0          
H1       H      0.231700000000     0.565033333333     0.514933333333     0          
O2       O      0.260633333333     0.406033333333     0.544666666667     0          
C3       C      0.260966666667     0.405700000000     0.508966666667     0          
H1       H      0.268300000000     0.398366666667     0.514933333333     0          
O2       O      0.093966666667     0.427300000000     0.544666666667     0          
C3       C      0.094300000000     0.427633333333     0.508966666667     0          
H1       H      0.101633333333     0.434966666667     0.514933333333     0          
O2       O      0.072700000000     0.593966666667     0.544666666667     0          
C3       C      0.072366666667     0.594300000000     0.508966666667     0          
H1       H      0.065033333333     0.601633333333     0.514933333333     0          
O2       O      0.093966666667     0.455333333333     0.427300000000     0          
C3       C      0.094300000000     0.491033333333     0.427633333333     0          
H1       H      0.101633333333     0.485066666667     0.434966666667     0          
O2       O      0.239366666667     0.544666666667     0.427300000000     0          
C3       C      0.239033333333     0.508966666667     0.427633333333     0          
H1       H      0.231700000000     0.514933333333     0.434966666667     0          
O2       O      0.239366666667     0.455333333333     0.572700000000     0          
C3       C      0.239033333333     0.491033333333     0.572366666667     0          
H1       H      0.231700000000     0.485066666667     0.565033333333     0          
O2       O      0.093966666667     0.544666666667     0.572700000000     0          
C3       C      0.094300000000     0.508966666667     0.572366666667     0          
H1       H      0.101633333333     0.514933333333     0.565033333333     0          
O2       O      0.260633333333     0.455333333333     0.406033333333     0          
C3       C      0.260966666667     0.491033333333     0.405700000000     0          
H1       H      0.268300000000     0.485066666667     0.398366666667     0          
O2       O      0.260633333333     0.544666666667     0.593966666667     0          
C3       C      0.260966666667     0.508966666667     0.594300000000     0          
H1       H      0.268300000000     0.514933333333     0.601633333333     0          
O2       O      0.072700000000     0.455333333333     0.593966666667     0          
C3       C      0.072366666667     0.491033333333     0.594300000000     0          
H1       H      0.065033333333     0.485066666667     0.601633333333     0          
O2       O      0.072700000000     0.544666666667     0.406033333333     0          
C3       C      0.072366666667     0.508966666667     0.405700000000     0          
H1       H      0.065033333333     0.514933333333     0.398366666667     0          
O2       O      0.211333333333     0.427300000000     0.572700000000     0          
C1       C      0.203766666667     0.416666666667     0.583333333333     0          
C2       C      0.184600000000     0.416666666667     0.583333333333     0          
C3       C      0.175633333333     0.427633333333     0.572366666667     0          
H1       H      0.181600000000     0.434966666667     0.565033333333     0          
O2       O      0.122000000000     0.572700000000     0.572700000000     0          
C1       C      0.129566666667     0.583333333333     0.583333333333     0          
C2       C      0.148733333333     0.583333333333     0.583333333333     0          
C3       C      0.157700000000     0.572366666667     0.572366666667     0          
H1       H      0.151733333333     0.565033333333     0.565033333333     0          
O2       O      0.211333333333     0.572700000000     0.427300000000     0          
C1       C      0.203766666667     0.583333333333     0.416666666667     0          
C2       C      0.184600000000     0.583333333333     0.416666666667     0          
C3       C      0.175633333333     0.572366666667     0.427633333333     0          
H1       H      0.181600000000     0.565033333333     0.434966666667     0          
O2       O      0.122000000000     0.427300000000     0.427300000000     0          
C1       C      0.129566666667     0.416666666667     0.416666666667     0          
C2       C      0.148733333333     0.416666666667     0.416666666667     0          
C3       C      0.157700000000     0.427633333333     0.427633333333     0          
H1       H      0.151733333333     0.434966666667     0.434966666667     0          
O2       O      0.211333333333     0.406033333333     0.406033333333     0          
C1       C      0.203766666667     0.416666666667     0.416666666667     0          
C2       C      0.184600000000     0.416666666667     0.416666666667     0          
C3       C      0.175633333333     0.405700000000     0.405700000000     0          
H1       H      0.181600000000     0.398366666667     0.398366666667     0          
O2       O      0.122000000000     0.593966666667     0.406033333333     0          
C1       C      0.129566666667     0.583333333333     0.416666666667     0          
C2       C      0.148733333333     0.583333333333     0.416666666667     0          
C3       C      0.157700000000     0.594300000000     0.405700000000     0          
H1       H      0.151733333333     0.601633333333     0.398366666667     0          
O2       O      0.211333333333     0.593966666667     0.593966666667     0          
C1       C      0.203766666667     0.583333333333     0.583333333333     0          
C2       C      0.184600000000     0.583333333333     0.583333333333     0          
C3       C      0.175633333333     0.594300000000     0.594300000000     0          
H1       H      0.181600000000     0.601633333333     0.601633333333     0          
O2       O      0.122000000000     0.406033333333     0.593966666667     0          
C1       C      0.129566666667     0.416666666667     0.583333333333     0          
C2       C      0.148733333333     0.416666666667     0.583333333333     0          
C3       C      0.157700000000     0.405700000000     0.594300000000     0          
H1       H      0.151733333333     0.398366666667     0.601633333333     0          
O2       O      0.122000000000     0.572700000000     0.427300000000     0          
C3       C      0.157700000000     0.572366666667     0.427633333333     0          
H1       H      0.151733333333     0.565033333333     0.434966666667     0          
O2       O      0.211333333333     0.427300000000     0.427300000000     0          
C3       C      0.175633333333     0.427633333333     0.427633333333     0          
H1       H      0.181600000000     0.434966666667     0.434966666667     0          
O2       O      0.122000000000     0.427300000000     0.572700000000     0          
C3       C      0.157700000000     0.427633333333     0.572366666667     0          
H1       H      0.151733333333     0.434966666667     0.565033333333     0          
O2       O      0.211333333333     0.572700000000     0.572700000000     0          
C3       C      0.175633333333     0.572366666667     0.572366666667     0          
H1       H      0.181600000000     0.565033333333     0.565033333333     0          
O2       O      0.122000000000     0.593966666667     0.593966666667     0          
C3       C      0.157700000000     0.594300000000     0.594300000000     0          
H1       H      0.151733333333     0.601633333333     0.601633333333     0          
O2       O      0.211333333333     0.406033333333     0.593966666667     0          
C3       C      0.175633333333     0.405700000000     0.594300000000     0          
H1       H      0.181600000000     0.398366666667     0.601633333333     0          
O2       O      0.122000000000     0.406033333333     0.406033333333     0          
C3       C      0.157700000000     0.405700000000     0.405700000000     0          
H1       H      0.151733333333     0.398366666667     0.398366666667     0          
O2       O      0.211333333333     0.593966666667     0.406033333333     0          
C3       C      0.175633333333     0.594300000000     0.405700000000     0          
H1       H      0.181600000000     0.601633333333     0.398366666667     0          
Zn1      Zn     0.097800000000     0.402200000000     0.735533333333     0          
O1       O      0.083333333333     0.416666666667     0.750000000000     0          
O2       O      0.093966666667     0.406033333333     0.711333333333     0          
C1       C      0.083333333333     0.416666666667     0.703766666667     0          
C2       C      0.083333333333     0.416666666667     0.684600000000     0          
C3       C      0.094300000000     0.405700000000     0.675633333333     0          
H1       H      0.101633333333     0.398366666667     0.681600000000     0          
Zn1      Zn     0.264466666667     0.431133333333     0.735533333333     0          
O1       O      0.250000000000     0.416666666667     0.750000000000     0          
O2       O      0.260633333333     0.427300000000     0.711333333333     0          
C1       C      0.250000000000     0.416666666667     0.703766666667     0          
C2       C      0.250000000000     0.416666666667     0.684600000000     0          
C3       C      0.260966666667     0.427633333333     0.675633333333     0          
H1       H      0.268300000000     0.434966666667     0.681600000000     0          
Zn1      Zn     0.235533333333     0.597800000000     0.735533333333     0          
O1       O      0.250000000000     0.583333333333     0.750000000000     0          
O2       O      0.239366666667     0.593966666667     0.711333333333     0          
C1       C      0.250000000000     0.583333333333     0.703766666667     0          
C2       C      0.250000000000     0.583333333333     0.684600000000     0          
C3       C      0.239033333333     0.594300000000     0.675633333333     0          
H1       H      0.231700000000     0.601633333333     0.681600000000     0          
Zn1      Zn     0.068866666667     0.568866666667     0.735533333333     0          
O1       O      0.083333333333     0.583333333333     0.750000000000     0          
O2       O      0.072700000000     0.572700000000     0.711333333333     0          
C1       C      0.083333333333     0.583333333333     0.703766666667     0          
C2       C      0.083333333333     0.583333333333     0.684600000000     0          
C3       C      0.072366666667     0.572366666667     0.675633333333     0          
H1       H      0.065033333333     0.565033333333     0.681600000000     0          
Zn1      Zn     0.097800000000     0.597800000000     0.931133333333     0          
O1       O      0.083333333333     0.583333333333     0.916666666667     0          
O2       O      0.093966666667     0.593966666667     0.955333333333     0          
C1       C      0.083333333333     0.583333333333     0.962900000000     0          
C2       C      0.083333333333     0.583333333333     0.982066666667     0          
C3       C      0.094300000000     0.594300000000     0.991033333333     0          
H1       H      0.101633333333     0.601633333333     0.985066666667     0          
Zn1      Zn     0.068866666667     0.431133333333     0.931133333333     0          
O1       O      0.083333333333     0.416666666667     0.916666666667     0          
O2       O      0.072700000000     0.427300000000     0.955333333333     0          
C1       C      0.083333333333     0.416666666667     0.962900000000     0          
C2       C      0.083333333333     0.416666666667     0.982066666667     0          
C3       C      0.072366666667     0.427633333333     0.991033333333     0          
H1       H      0.065033333333     0.434966666667     0.985066666667     0          
Zn1      Zn     0.235533333333     0.402200000000     0.931133333333     0          
O1       O      0.250000000000     0.416666666667     0.916666666667     0          
O2       O      0.239366666667     0.406033333333     0.955333333333     0          
C1       C      0.250000000000     0.416666666667     0.962900000000     0          
C2       C      0.250000000000     0.416666666667     0.982066666667     0          
C3       C      0.239033333333     0.405700000000     0.991033333333     0          
H1       H      0.231700000000     0.398366666667     0.985066666667     0          
Zn1      Zn     0.264466666667     0.568866666667     0.931133333333     0          
O1       O      0.250000000000     0.583333333333     0.916666666667     0          
O2       O      0.260633333333     0.572700000000     0.955333333333     0          
C1       C      0.250000000000     0.583333333333     0.962900000000     0          
C2       C      0.250000000000     0.583333333333     0.982066666667     0          
C3       C      0.260966666667     0.572366666667     0.991033333333     0          
H1       H      0.268300000000     0.565033333333     0.985066666667     0          
Zn1      Zn     0.068866666667     0.431133333333     0.735533333333     0          
O2       O      0.044666666667     0.427300000000     0.739366666667     0          
C1       C      0.037100000000     0.416666666667     0.750000000000     0          
C2       C      0.017933333333     0.416666666667     0.750000000000     0          
C3       C      0.008966666667     0.427633333333     0.739033333333     0          
H1       H      0.014933333333     0.434966666667     0.731700000000     0          
Zn1      Zn     0.235533333333     0.402200000000     0.735533333333     0          
O2       O      0.239366666667     0.378000000000     0.739366666667     0          
C1       C      0.250000000000     0.370433333333     0.750000000000     0          
C2       C      0.250000000000     0.351266666667     0.750000000000     0          
C3       C      0.239033333333     0.342300000000     0.739033333333     0          
H1       H      0.231700000000     0.348266666667     0.731700000000     0          
Zn1      Zn     0.264466666667     0.568866666667     0.735533333333     0          
O2       O      0.288666666667     0.572700000000     0.739366666667     0          
C1       C      0.296233333333     0.583333333333     0.750000000000     0          
C2       C      0.315400000000     0.583333333333     0.750000000000     0          
C3       C      0.324366666667     0.572366666667     0.739033333333     0          
H1       H      0.318400000000     0.565033333333     0.731700000000     0          
Zn1      Zn     0.097800000000     0.597800000000     0.735533333333     0          
O2       O      0.093966666667     0.622000000000     0.739366666667     0          
C1       C      0.083333333333     0.629566666667     0.750000000000     0          
C2       C      0.083333333333     0.648733333333     0.750000000000     0          
C3       C      0.094300000000     0.657700000000     0.739033333333     0          
H1       H      0.101633333333     0.651733333333     0.731700000000     0          
Zn1      Zn     0.068866666667     0.568866666667     0.931133333333     0          
O2       O      0.044666666667     0.572700000000     0.927300000000     0          
C1       C      0.037100000000     0.583333333333     0.916666666667     0          
C2       C      0.017933333333     0.583333333333     0.916666666667     0          
C3       C      0.008966666667     0.572366666667     0.927633333333     0          
H1       H      0.014933333333     0.565033333333     0.934966666667     0          
Zn1      Zn     0.097800000000     0.402200000000     0.931133333333     0          
O2       O      0.093966666667     0.378000000000     0.927300000000     0          
C1       C      0.083333333333     0.370433333333     0.916666666667     0          
C2       C      0.083333333333     0.351266666667     0.916666666667     0          
C3       C      0.094300000000     0.342300000000     0.927633333333     0          
H1       H      0.101633333333     0.348266666667     0.934966666667     0          
Zn1      Zn     0.264466666667     0.431133333333     0.931133333333     0          
O2       O      0.288666666667     0.427300000000     0.927300000000     0          
C1       C      0.296233333333     0.416666666667     0.916666666667     0          
C2       C      0.315400000000     0.416666666667     0.916666666667     0          
C3       C      0.324366666667     0.427633333333     0.927633333333     0          
H1       H      0.318400000000     0.434966666667     0.934966666667     0          
Zn1      Zn     0.235533333333     0.597800000000     0.931133333333     0          
O2       O      0.239366666667     0.622000000000     0.927300000000     0          
C1       C      0.250000000000     0.629566666667     0.916666666667     0          
C2       C      0.250000000000     0.648733333333     0.916666666667     0          
C3       C      0.239033333333     0.657700000000     0.927633333333     0          
H1       H      0.231700000000     0.651733333333     0.934966666667     0          
Zn1      Zn     0.068866666667     0.402200000000     0.764466666667     0          
O2       O      0.072700000000     0.378000000000     0.760633333333     0          
C1       C      0.083333333333     0.370433333333     0.750000000000     0          
C2       C      0.083333333333     0.351266666667     0.750000000000     0          
C3       C      0.072366666667     0.342300000000     0.760966666667     0          
H1       H      0.065033333333     0.348266666667     0.768300000000     0          
Zn1      Zn     0.068866666667     0.597800000000     0.902200000000     0          
O2       O      0.072700000000     0.622000000000     0.906033333333     0          
C1       C      0.083333333333     0.629566666667     0.916666666667     0          
C2       C      0.083333333333     0.648733333333     0.916666666667     0          
C3       C      0.072366666667     0.657700000000     0.905700000000     0          
H1       H      0.065033333333     0.651733333333     0.898366666667     0          
Zn1      Zn     0.068866666667     0.402200000000     0.902200000000     0          
O2       O      0.044666666667     0.406033333333     0.906033333333     0          
C1       C      0.037100000000     0.416666666667     0.916666666667     0          
C2       C      0.017933333333     0.416666666667     0.916666666667     0          
C3       C      0.008966666667     0.405700000000     0.905700000000     0          
H1       H      0.014933333333     0.398366666667     0.898366666667     0          
Zn1      Zn     0.264466666667     0.402200000000     0.902200000000     0          
O2       O      0.260633333333     0.378000000000     0.906033333333     0          
C1       C      0.250000000000     0.370433333333     0.916666666667     0          
C2       C      0.250000000000     0.351266666667     0.916666666667     0          
C3       C      0.260966666667     0.342300000000     0.905700000000     0          
H1       H      0.268300000000     0.348266666667     0.898366666667     0          
Zn1      Zn     0.264466666667     0.597800000000     0.902200000000     0          
O2       O      0.288666666667     0.593966666667     0.906033333333     0          
C1       C      0.296233333333     0.583333333333     0.916666666667     0          
C2       C      0.315400000000     0.583333333333     0.916666666667     0          
C3       C      0.324366666667     0.594300000000     0.905700000000     0          
H1       H      0.318400000000     0.601633333333     0.898366666667     0          
Zn1      Zn     0.264466666667     0.597800000000     0.764466666667     0          
O2       O      0.260633333333     0.622000000000     0.760633333333     0          
C1       C      0.250000000000     0.629566666667     0.750000000000     0          
C2       C      0.250000000000     0.648733333333     0.750000000000     0          
C3       C      0.260966666667     0.657700000000     0.760966666667     0          
H1       H      0.268300000000     0.651733333333     0.768300000000     0          
Zn1      Zn     0.068866666667     0.597800000000     0.764466666667     0          
O2       O      0.044666666667     0.593966666667     0.760633333333     0          
C1       C      0.037100000000     0.583333333333     0.750000000000     0          
C2       C      0.017933333333     0.583333333333     0.750000000000     0          
C3       C      0.008966666667     0.594300000000     0.760966666667     0          
H1       H      0.014933333333     0.601633333333     0.768300000000     0          
Zn1      Zn     0.264466666667     0.402200000000     0.764466666667     0          
O2       O      0.288666666667     0.406033333333     0.760633333333     0          
C1       C      0.296233333333     0.416666666667     0.750000000000     0          
C2       C      0.315400000000     0.416666666667     0.750000000000     0          
C3       C      0.324366666667     0.405700000000     0.760966666667     0          
H1       H      0.318400000000     0.398366666667     0.768300000000     0          
O2       O      0.239366666667     0.593966666667     0.955333333333     0          
C3       C      0.239033333333     0.594300000000     0.991033333333     0          
H1       H      0.231700000000     0.601633333333     0.985066666667     0          
O2       O      0.072700000000     0.572700000000     0.955333333333     0          
C3       C      0.072366666667     0.572366666667     0.991033333333     0          
H1       H      0.065033333333     0.565033333333     0.985066666667     0          
O2       O      0.093966666667     0.406033333333     0.955333333333     0          
C3       C      0.094300000000     0.405700000000     0.991033333333     0          
H1       H      0.101633333333     0.398366666667     0.985066666667     0          
O2       O      0.260633333333     0.427300000000     0.955333333333     0          
C3       C      0.260966666667     0.427633333333     0.991033333333     0          
H1       H      0.268300000000     0.434966666667     0.985066666667     0          
O2       O      0.239366666667     0.406033333333     0.711333333333     0          
C3       C      0.239033333333     0.405700000000     0.675633333333     0          
H1       H      0.231700000000     0.398366666667     0.681600000000     0          
O2       O      0.260633333333     0.572700000000     0.711333333333     0          
C3       C      0.260966666667     0.572366666667     0.675633333333     0          
H1       H      0.268300000000     0.565033333333     0.681600000000     0          
O2       O      0.093966666667     0.593966666667     0.711333333333     0          
C3       C      0.094300000000     0.594300000000     0.675633333333     0          
H1       H      0.101633333333     0.601633333333     0.681600000000     0          
O2       O      0.072700000000     0.427300000000     0.711333333333     0          
C3       C      0.072366666667     0.427633333333     0.675633333333     0          
H1       H      0.065033333333     0.434966666667     0.681600000000     0          
O2       O      0.288666666667     0.572700000000     0.927300000000     0          
C3       C      0.324366666667     0.572366666667     0.927633333333     0          
H1       H      0.318400000000     0.565033333333     0.934966666667     0          
O2       O      0.093966666667     0.622000000000     0.927300000000     0          
C3       C      0.094300000000     0.657700000000     0.927633333333     0          
H1       H      0.101633333333     0.651733333333     0.934966666667     0          
O2       O      0.044666666667     0.427300000000     0.927300000000     0          
C3       C      0.008966666667     0.427633333333     0.927633333333     0          
H1       H      0.014933333333     0.434966666667     0.934966666667     0          
O2       O      0.239366666667     0.378000000000     0.927300000000     0          
C3       C      0.239033333333     0.342300000000     0.927633333333     0          
H1       H      0.231700000000     0.348266666667     0.934966666667     0          
O2       O      0.288666666667     0.427300000000     0.739366666667     0          
C3       C      0.324366666667     0.427633333333     0.739033333333     0          
H1       H      0.318400000000     0.434966666667     0.731700000000     0          
O2       O      0.239366666667     0.622000000000     0.739366666667     0          
C3       C      0.239033333333     0.657700000000     0.739033333333     0          
H1       H      0.231700000000     0.651733333333     0.731700000000     0          
O2       O      0.044666666667     0.572700000000     0.739366666667     0          
C3       C      0.008966666667     0.572366666667     0.739033333333     0          
H1       H      0.014933333333     0.565033333333     0.731700000000     0          
O2       O      0.093966666667     0.378000000000     0.739366666667     0          
C3       C      0.094300000000     0.342300000000     0.739033333333     0          
H1       H      0.101633333333     0.348266666667     0.731700000000     0          
O2       O      0.260633333333     0.622000000000     0.906033333333     0          
C3       C      0.260966666667     0.657700000000     0.905700000000     0          
H1       H      0.268300000000     0.651733333333     0.898366666667     0          
O2       O      0.260633333333     0.378000000000     0.760633333333     0          
C3       C      0.260966666667     0.342300000000     0.760966666667     0          
H1       H      0.268300000000     0.348266666667     0.768300000000     0          
O2       O      0.288666666667     0.593966666667     0.760633333333     0          
C3       C      0.324366666667     0.594300000000     0.760966666667     0          
H1       H      0.318400000000     0.601633333333     0.768300000000     0          
O2       O      0.072700000000     0.622000000000     0.760633333333     0          
C3       C      0.072366666667     0.657700000000     0.760966666667     0          
H1       H      0.065033333333     0.651733333333     0.768300000000     0          
O2       O      0.044666666667     0.406033333333     0.760633333333     0          
C3       C      0.008966666667     0.405700000000     0.760966666667     0          
H1       H      0.014933333333     0.398366666667     0.768300000000     0          
O2       O      0.072700000000     0.378000000000     0.906033333333     0          
C3       C      0.072366666667     0.342300000000     0.905700000000     0          
H1       H      0.065033333333     0.348266666667     0.898366666667     0          
O2       O      0.288666666667     0.406033333333     0.906033333333     0          
C3       C      0.324366666667     0.405700000000     0.905700000000     0          
H1       H      0.318400000000     0.398366666667     0.898366666667     0          
O2       O      0.044666666667     0.593966666667     0.906033333333     0          
C3       C      0.008966666667     0.594300000000     0.905700000000     0          
H1       H      0.014933333333     0.601633333333     0.898366666667     0          
Zn1      Zn     0.097800000000     0.568866666667     0.902200000000     0          
O2       O      0.093966666667     0.572700000000     0.878000000000     0          
C1       C      0.083333333333     0.583333333333     0.870433333333     0          
C2       C      0.083333333333     0.583333333333     0.851266666667     0          
C3       C      0.094300000000     0.572366666667     0.842300000000     0          
H1       H      0.101633333333     0.565033333333     0.848266666667     0          
O2       O      0.260633333333     0.593966666667     0.878000000000     0          
C1       C      0.250000000000     0.583333333333     0.870433333333     0          
C2       C      0.250000000000     0.583333333333     0.851266666667     0          
C3       C      0.260966666667     0.594300000000     0.842300000000     0          
H1       H      0.268300000000     0.601633333333     0.848266666667     0          
Zn1      Zn     0.235533333333     0.431133333333     0.902200000000     0          
O2       O      0.239366666667     0.427300000000     0.878000000000     0          
C1       C      0.250000000000     0.416666666667     0.870433333333     0          
C2       C      0.250000000000     0.416666666667     0.851266666667     0          
C3       C      0.239033333333     0.427633333333     0.842300000000     0          
H1       H      0.231700000000     0.434966666667     0.848266666667     0          
O2       O      0.072700000000     0.406033333333     0.878000000000     0          
C1       C      0.083333333333     0.416666666667     0.870433333333     0          
C2       C      0.083333333333     0.416666666667     0.851266666667     0          
C3       C      0.072366666667     0.405700000000     0.842300000000     0          
H1       H      0.065033333333     0.398366666667     0.848266666667     0          
Zn1      Zn     0.097800000000     0.431133333333     0.764466666667     0          
O2       O      0.093966666667     0.427300000000     0.788666666667     0          
C1       C      0.083333333333     0.416666666667     0.796233333333     0          
C2       C      0.083333333333     0.416666666667     0.815400000000     0          
C3       C      0.094300000000     0.427633333333     0.824366666667     0          
H1       H      0.101633333333     0.434966666667     0.818400000000     0          
O2       O      0.072700000000     0.593966666667     0.788666666667     0          
C1       C      0.083333333333     0.583333333333     0.796233333333     0          
C2       C      0.083333333333     0.583333333333     0.815400000000     0          
C3       C      0.072366666667     0.594300000000     0.824366666667     0          
H1       H      0.065033333333     0.601633333333     0.818400000000     0          
Zn1      Zn     0.235533333333     0.568866666667     0.764466666667     0          
O2       O      0.239366666667     0.572700000000     0.788666666667     0          
C1       C      0.250000000000     0.583333333333     0.796233333333     0          
C2       C      0.250000000000     0.583333333333     0.815400000000     0          
C3       C      0.239033333333     0.572366666667     0.824366666667     0          
H1       H      0.231700000000     0.565033333333     0.818400000000     0          
O2       O      0.260633333333     0.406033333333     0.788666666667     0          
C1       C      0.250000000000     0.416666666667     0.796233333333     0          
C2       C      0.250000000000     0.416666666667     0.815400000000     0          
C3       C      0.260966666667     0.405700000000     0.824366666667     0          
H1       H      0.268300000000     0.398366666667     0.818400000000     0          
Zn1      Zn     0.235533333333     0.568866666667     0.902200000000     0          
O2       O      0.239366666667     0.544666666667     0.906033333333     0          
C1       C      0.250000000000     0.537100000000     0.916666666667     0          
C2       C      0.250000000000     0.517933333333     0.916666666667     0          
C3       C      0.239033333333     0.508966666667     0.905700000000     0          
H1       H      0.231700000000     0.514933333333     0.898366666667     0          
Zn1      Zn     0.097800000000     0.431133333333     0.902200000000     0          
O2       O      0.093966666667     0.455333333333     0.906033333333     0          
C1       C      0.083333333333     0.462900000000     0.916666666667     0          
C2       C      0.083333333333     0.482066666667     0.916666666667     0          
C3       C      0.094300000000     0.491033333333     0.905700000000     0          
H1       H      0.101633333333     0.485066666667     0.898366666667     0          
Zn1      Zn     0.097800000000     0.568866666667     0.764466666667     0          
O2       O      0.093966666667     0.544666666667     0.760633333333     0          
C1       C      0.083333333333     0.537100000000     0.750000000000     0          
C2       C      0.083333333333     0.517933333333     0.750000000000     0          
C3       C      0.094300000000     0.508966666667     0.760966666667     0          
H1       H      0.101633333333     0.514933333333     0.768300000000     0          
Zn1      Zn     0.235533333333     0.431133333333     0.764466666667     0          
O2       O      0.239366666667     0.455333333333     0.760633333333     0          
C1       C      0.250000000000     0.462900000000     0.750000000000     0          
C2       C      0.250000000000     0.482066666667     0.750000000000     0          
C3       C      0.239033333333     0.491033333333     0.760966666667     0          
H1       H      0.231700000000     0.485066666667     0.768300000000     0          
O2       O      0.072700000000     0.544666666667     0.927300000000     0          
C1       C      0.083333333333     0.537100000000     0.916666666667     0          
C2       C      0.083333333333     0.517933333333     0.916666666667     0          
C3       C      0.072366666667     0.508966666667     0.927633333333     0          
H1       H      0.065033333333     0.514933333333     0.934966666667     0          
O2       O      0.072700000000     0.455333333333     0.739366666667     0          
C1       C      0.083333333333     0.462900000000     0.750000000000     0          
C2       C      0.083333333333     0.482066666667     0.750000000000     0          
C3       C      0.072366666667     0.491033333333     0.739033333333     0          
H1       H      0.065033333333     0.485066666667     0.731700000000     0          
O2       O      0.260633333333     0.544666666667     0.739366666667     0          
C1       C      0.250000000000     0.537100000000     0.750000000000     0          
C2       C      0.250000000000     0.517933333333     0.750000000000     0          
C3       C      0.260966666667     0.508966666667     0.739033333333     0          
H1       H      0.268300000000     0.514933333333     0.731700000000     0          
O2       O      0.260633333333     0.455333333333     0.927300000000     0          
C1       C      0.250000000000     0.462900000000     0.916666666667     0          
C2       C      0.250000000000     0.482066666667     0.916666666667     0          
C3       C      0.260966666667     0.491033333333     0.927633333333     0          
H1       H      0.268300000000     0.485066666667     0.934966666667     0          
O2       O      0.239366666667     0.427300000000     0.788666666667     0          
C3       C      0.239033333333     0.427633333333     0.824366666667     0          
H1       H      0.231700000000     0.434966666667     0.818400000000     0          
O2       O      0.072700000000     0.406033333333     0.788666666667     0          
C3       C      0.072366666667     0.405700000000     0.824366666667     0          
H1       H      0.065033333333     0.398366666667     0.818400000000     0          
O2       O      0.093966666667     0.572700000000     0.788666666667     0          
C3       C      0.094300000000     0.572366666667     0.824366666667     0          
H1       H      0.101633333333     0.565033333333     0.818400000000     0          
O2       O      0.260633333333     0.593966666667     0.788666666667     0          
C3       C      0.260966666667     0.594300000000     0.824366666667     0          
H1       H      0.268300000000     0.601633333333     0.818400000000     0          
O2       O      0.239366666667     0.572700000000     0.878000000000     0          
C3       C      0.239033333333     0.572366666667     0.842300000000     0          
H1       H      0.231700000000     0.565033333333     0.848266666667     0          
O2       O      0.260633333333     0.406033333333     0.878000000000     0          
C3       C      0.260966666667     0.405700000000     0.842300000000     0          
H1       H      0.268300000000     0.398366666667     0.848266666667     0          
O2       O      0.093966666667     0.427300000000     0.878000000000     0          
C3       C      0.094300000000     0.427633333333     0.842300000000     0          
H1       H      0.101633333333     0.434966666667     0.848266666667     0          
O2       O      0.072700000000     0.593966666667     0.878000000000     0          
C3       C      0.072366666667     0.594300000000     0.842300000000     0          
H1       H      0.065033333333     0.601633333333     0.848266666667     0          
O2       O      0.093966666667     0.455333333333     0.760633333333     0          
C3       C      0.094300000000     0.491033333333     0.760966666667     0          
H1       H      0.101633333333     0.485066666667     0.768300000000     0          
O2       O      0.239366666667     0.544666666667     0.760633333333     0          
C3       C      0.239033333333     0.508966666667     0.760966666667     0          
H1       H      0.231700000000     0.514933333333     0.768300000000     0          
O2       O      0.239366666667     0.455333333333     0.906033333333     0          
C3       C      0.239033333333     0.491033333333     0.905700000000     0          
H1       H      0.231700000000     0.485066666667     0.898366666667     0          
O2       O      0.093966666667     0.544666666667     0.906033333333     0          
C3       C      0.094300000000     0.508966666667     0.905700000000     0          
H1       H      0.101633333333     0.514933333333     0.898366666667     0          
O2       O      0.260633333333     0.455333333333     0.739366666667     0          
C3       C      0.260966666667     0.491033333333     0.739033333333     0          
H1       H      0.268300000000     0.485066666667     0.731700000000     0          
O2       O      0.260633333333     0.544666666667     0.927300000000     0          
C3       C      0.260966666667     0.508966666667     0.927633333333     0          
H1       H      0.268300000000     0.514933333333     0.934966666667     0          
O2       O      0.072700000000     0.455333333333     0.927300000000     0          
C3       C      0.072366666667     0.491033333333     0.927633333333     0          
H1       H      0.065033333333     0.485066666667     0.934966666667     0          
O2       O      0.072700000000     0.544666666667     0.739366666667     0          
C3       C      0.072366666667     0.508966666667     0.739033333333     0          
H1       H      0.065033333333     0.514933333333     0.731700000000     0          
O2       O      0.211333333333     0.427300000000     0.906033333333     0          
C1       C      0.203766666667     0.416666666667     0.916666666667     0          
C2       C      0.184600000000     0.416666666667     0.916666666667     0          
C3       C      0.175633333333     0.427633333333     0.905700000000     0          
H1       H      0.181600000000     0.434966666667     0.898366666667     0          
O2       O      0.122000000000     0.572700000000     0.906033333333     0          
C1       C      0.129566666667     0.583333333333     0.916666666667     0          
C2       C      0.148733333333     0.583333333333     0.916666666667     0          
C3       C      0.157700000000     0.572366666667     0.905700000000     0          
H1       H      0.151733333333     0.565033333333     0.898366666667     0          
O2       O      0.211333333333     0.572700000000     0.760633333333     0          
C1       C      0.203766666667     0.583333333333     0.750000000000     0          
C2       C      0.184600000000     0.583333333333     0.750000000000     0          
C3       C      0.175633333333     0.572366666667     0.760966666667     0          
H1       H      0.181600000000     0.565033333333     0.768300000000     0          
O2       O      0.122000000000     0.427300000000     0.760633333333     0          
C1       C      0.129566666667     0.416666666667     0.750000000000     0          
C2       C      0.148733333333     0.416666666667     0.750000000000     0          
C3       C      0.157700000000     0.427633333333     0.760966666667     0          
H1       H      0.151733333333     0.434966666667     0.768300000000     0          
O2       O      0.211333333333     0.406033333333     0.739366666667     0          
C1       C      0.203766666667     0.416666666667     0.750000000000     0          
C2       C      0.184600000000     0.416666666667     0.750000000000     0          
C3       C      0.175633333333     0.405700000000     0.739033333333     0          
H1       H      0.181600000000     0.398366666667     0.731700000000     0          
O2       O      0.122000000000     0.593966666667     0.739366666667     0          
C1       C      0.129566666667     0.583333333333     0.750000000000     0          
C2       C      0.148733333333     0.583333333333     0.750000000000     0          
C3       C      0.157700000000     0.594300000000     0.739033333333     0          
H1       H      0.151733333333     0.601633333333     0.731700000000     0          
O2       O      0.211333333333     0.593966666667     0.927300000000     0          
C1       C      0.203766666667     0.583333333333     0.916666666667     0          
C2       C      0.184600000000     0.583333333333     0.916666666667     0          
C3       C      0.175633333333     0.594300000000     0.927633333333     0          
H1       H      0.181600000000     0.601633333333     0.934966666667     0          
O2       O      0.122000000000     0.406033333333     0.927300000000     0          
C1       C      0.129566666667     0.416666666667     0.916666666667     0          
C2       C      0.148733333333     0.416666666667     0.916666666667     0          
C3       C      0.157700000000     0.405700000000     0.927633333333     0          
H1       H      0.151733333333     0.398366666667     0.934966666667     0          
O2       O      0.122000000000     0.572700000000     0.760633333333     0          
C3       C      0.157700000000     0.572366666667     0.760966666667     0          
H1       H      0.151733333333     0.565033333333     0.768300000000     0          
O2       O      0.211333333333     0.427300000000     0.760633333333     0          
C3       C      0.175633333333     0.427633333333     0.760966666667     0          
H1       H      0.181600000000     0.434966666667     0.768300000000     0          
O2       O      0.122000000000     0.427300000000     0.906033333333     0          
C3       C      0.157700000000     0.427633333333     0.905700000000     0          
H1       H      0.151733333333     0.434966666667     0.898366666667     0          
O2       O      0.211333333333     0.572700000000     0.906033333333     0          
C3       C      0.175633333333     0.572366666667     0.905700000000     0          
H1       H      0.181600000000     0.565033333333     0.898366666667     0          
O2       O      0.122000000000     0.593966666667     0.927300000000     0          
C3       C      0.157700000000     0.594300000000     0.927633333333     0          
H1       H      0.151733333333     0.601633333333     0.934966666667     0          
O2       O      0.211333333333     0.406033333333     0.927300000000     0          
C3       C      0.175633333333     0.405700000000     0.927633333333     0          
H1       H      0.181600000000     0.398366666667     0.934966666667     0          
O2       O      0.122000000000     0.406033333333     0.739366666667     0          
C3       C      0.157700000000     0.405700000000     0.739033333333     0          
H1       H      0.151733333333     0.398366666667     0.731700000000     0          
O2       O      0.211333333333     0.593966666667     0.739366666667     0          
C3       C      0.175633333333     0.594300000000     0.739033333333     0          
H1       H      0.181600000000     0.601633333333     0.731700000000     0          
Zn1      Zn     0.097800000000     0.735533333333     0.068866666667     0          
O1       O      0.083333333333     0.750000000000     0.083333333333     0          
O2       O      0.093966666667     0.739366666667     0.044666666667     0          
C1       C      0.083333333333     0.750000000000     0.037100000000     0          
C2       C      0.083333333333     0.750000000000     0.017933333333     0          
C3       C      0.094300000000     0.739033333333     0.008966666667     0          
H1       H      0.101633333333     0.731700000000     0.014933333333     0          
Zn1      Zn     0.264466666667     0.764466666667     0.068866666667     0          
O1       O      0.250000000000     0.750000000000     0.083333333333     0          
O2       O      0.260633333333     0.760633333333     0.044666666667     0          
C1       C      0.250000000000     0.750000000000     0.037100000000     0          
C2       C      0.250000000000     0.750000000000     0.017933333333     0          
C3       C      0.260966666667     0.760966666667     0.008966666667     0          
H1       H      0.268300000000     0.768300000000     0.014933333333     0          
Zn1      Zn     0.235533333333     0.931133333333     0.068866666667     0          
O1       O      0.250000000000     0.916666666667     0.083333333333     0          
O2       O      0.239366666667     0.927300000000     0.044666666667     0          
C1       C      0.250000000000     0.916666666667     0.037100000000     0          
C2       C      0.250000000000     0.916666666667     0.017933333333     0          
C3       C      0.239033333333     0.927633333333     0.008966666667     0          
H1       H      0.231700000000     0.934966666667     0.014933333333     0          
Zn1      Zn     0.068866666667     0.902200000000     0.068866666667     0          
O1       O      0.083333333333     0.916666666667     0.083333333333     0          
O2       O      0.072700000000     0.906033333333     0.044666666667     0          
C1       C      0.083333333333     0.916666666667     0.037100000000     0          
C2       C      0.083333333333     0.916666666667     0.017933333333     0          
C3       C      0.072366666667     0.905700000000     0.008966666667     0          
H1       H      0.065033333333     0.898366666667     0.014933333333     0          
Zn1      Zn     0.097800000000     0.931133333333     0.264466666667     0          
O1       O      0.083333333333     0.916666666667     0.250000000000     0          
O2       O      0.093966666667     0.927300000000     0.288666666667     0          
C1       C      0.083333333333     0.916666666667     0.296233333333     0          
C2       C      0.083333333333     0.916666666667     0.315400000000     0          
C3       C      0.094300000000     0.927633333333     0.324366666667     0          
H1       H      0.101633333333     0.934966666667     0.318400000000     0          
Zn1      Zn     0.068866666667     0.764466666667     0.264466666667     0          
O1       O      0.083333333333     0.750000000000     0.250000000000     0          
O2       O      0.072700000000     0.760633333333     0.288666666667     0          
C1       C      0.083333333333     0.750000000000     0.296233333333     0          
C2       C      0.083333333333     0.750000000000     0.315400000000     0          
C3       C      0.072366666667     0.760966666667     0.324366666667     0          
H1       H      0.065033333333     0.768300000000     0.318400000000     0          
Zn1      Zn     0.235533333333     0.735533333333     0.264466666667     0          
O1       O      0.250000000000     0.750000000000     0.250000000000     0          
O2       O      0.239366666667     0.739366666667     0.288666666667     0          
C1       C      0.250000000000     0.750000000000     0.296233333333     0          
C2       C      0.250000000000     0.750000000000     0.315400000000     0          
C3       C      0.239033333333     0.739033333333     0.324366666667     0          
H1       H      0.231700000000     0.731700000000     0.318400000000     0          
Zn1      Zn     0.264466666667     0.902200000000     0.264466666667     0          
O1       O      0.250000000000     0.916666666667     0.250000000000     0          
O2       O      0.260633333333     0.906033333333     0.288666666667     0          
C1       C      0.250000000000     0.916666666667     0.296233333333     0          
C2       C      0.250000000000     0.916666666667     0.315400000000     0          
C3       C      0.260966666667     0.905700000000     0.324366666667     0          
H1       H      0.268300000000     0.898366666667     0.318400000000     0          
Zn1      Zn     0.068866666667     0.764466666667     0.068866666667     0          
O2       O      0.044666666667     0.760633333333     0.072700000000     0          
C1       C      0.037100000000     0.750000000000     0.083333333333     0          
C2       C      0.017933333333     0.750000000000     0.083333333333     0          
C3       C      0.008966666667     0.760966666667     0.072366666667     0          
H1       H      0.014933333333     0.768300000000     0.065033333333     0          
Zn1      Zn     0.235533333333     0.735533333333     0.068866666667     0          
O2       O      0.239366666667     0.711333333333     0.072700000000     0          
C1       C      0.250000000000     0.703766666667     0.083333333333     0          
C2       C      0.250000000000     0.684600000000     0.083333333333     0          
C3       C      0.239033333333     0.675633333333     0.072366666667     0          
H1       H      0.231700000000     0.681600000000     0.065033333333     0          
Zn1      Zn     0.264466666667     0.902200000000     0.068866666667     0          
O2       O      0.288666666667     0.906033333333     0.072700000000     0          
C1       C      0.296233333333     0.916666666667     0.083333333333     0          
C2       C      0.315400000000     0.916666666667     0.083333333333     0          
C3       C      0.324366666667     0.905700000000     0.072366666667     0          
H1       H      0.318400000000     0.898366666667     0.065033333333     0          
Zn1      Zn     0.097800000000     0.931133333333     0.068866666667     0          
O2       O      0.093966666667     0.955333333333     0.072700000000     0          
C1       C      0.083333333333     0.962900000000     0.083333333333     0          
C2       C      0.083333333333     0.982066666667     0.083333333333     0          
C3       C      0.094300000000     0.991033333333     0.072366666667     0          
H1       H      0.101633333333     0.985066666667     0.065033333333     0          
Zn1      Zn     0.068866666667     0.902200000000     0.264466666667     0          
O2       O      0.044666666667     0.906033333333     0.260633333333     0          
C1       C      0.037100000000     0.916666666667     0.250000000000     0          
C2       C      0.017933333333     0.916666666667     0.250000000000     0          
C3       C      0.008966666667     0.905700000000     0.260966666667     0          
H1       H      0.014933333333     0.898366666667     0.268300000000     0          
Zn1      Zn     0.097800000000     0.735533333333     0.264466666667     0          
O2       O      0.093966666667     0.711333333333     0.260633333333     0          
C1       C      0.083333333333     0.703766666667     0.250000000000     0          
C2       C      0.083333333333     0.684600000000     0.250000000000     0          
C3       C      0.094300000000     0.675633333333     0.260966666667     0          
H1       H      0.101633333333     0.681600000000     0.268300000000     0          
Zn1      Zn     0.264466666667     0.764466666667     0.264466666667     0          
O2       O      0.288666666667     0.760633333333     0.260633333333     0          
C1       C      0.296233333333     0.750000000000     0.250000000000     0          
C2       C      0.315400000000     0.750000000000     0.250000000000     0          
C3       C      0.324366666667     0.760966666667     0.260966666667     0          
H1       H      0.318400000000     0.768300000000     0.268300000000     0          
Zn1      Zn     0.235533333333     0.931133333333     0.264466666667     0          
O2       O      0.239366666667     0.955333333333     0.260633333333     0          
C1       C      0.250000000000     0.962900000000     0.250000000000     0          
C2       C      0.250000000000     0.982066666667     0.250000000000     0          
C3       C      0.239033333333     0.991033333333     0.260966666667     0          
H1       H      0.231700000000     0.985066666667     0.268300000000     0          
Zn1      Zn     0.068866666667     0.735533333333     0.097800000000     0          
O2       O      0.072700000000     0.711333333333     0.093966666667     0          
C1       C      0.083333333333     0.703766666667     0.083333333333     0          
C2       C      0.083333333333     0.684600000000     0.083333333333     0          
C3       C      0.072366666667     0.675633333333     0.094300000000     0          
H1       H      0.065033333333     0.681600000000     0.101633333333     0          
Zn1      Zn     0.068866666667     0.931133333333     0.235533333333     0          
O2       O      0.072700000000     0.955333333333     0.239366666667     0          
C1       C      0.083333333333     0.962900000000     0.250000000000     0          
C2       C      0.083333333333     0.982066666667     0.250000000000     0          
C3       C      0.072366666667     0.991033333333     0.239033333333     0          
H1       H      0.065033333333     0.985066666667     0.231700000000     0          
Zn1      Zn     0.068866666667     0.735533333333     0.235533333333     0          
O2       O      0.044666666667     0.739366666667     0.239366666667     0          
C1       C      0.037100000000     0.750000000000     0.250000000000     0          
C2       C      0.017933333333     0.750000000000     0.250000000000     0          
C3       C      0.008966666667     0.739033333333     0.239033333333     0          
H1       H      0.014933333333     0.731700000000     0.231700000000     0          
Zn1      Zn     0.264466666667     0.735533333333     0.235533333333     0          
O2       O      0.260633333333     0.711333333333     0.239366666667     0          
C1       C      0.250000000000     0.703766666667     0.250000000000     0          
C2       C      0.250000000000     0.684600000000     0.250000000000     0          
C3       C      0.260966666667     0.675633333333     0.239033333333     0          
H1       H      0.268300000000     0.681600000000     0.231700000000     0          
Zn1      Zn     0.264466666667     0.931133333333     0.235533333333     0          
O2       O      0.288666666667     0.927300000000     0.239366666667     0          
C1       C      0.296233333333     0.916666666667     0.250000000000     0          
C2       C      0.315400000000     0.916666666667     0.250000000000     0          
C3       C      0.324366666667     0.927633333333     0.239033333333     0          
H1       H      0.318400000000     0.934966666667     0.231700000000     0          
Zn1      Zn     0.264466666667     0.931133333333     0.097800000000     0          
O2       O      0.260633333333     0.955333333333     0.093966666667     0          
C1       C      0.250000000000     0.962900000000     0.083333333333     0          
C2       C      0.250000000000     0.982066666667     0.083333333333     0          
C3       C      0.260966666667     0.991033333333     0.094300000000     0          
H1       H      0.268300000000     0.985066666667     0.101633333333     0          
Zn1      Zn     0.068866666667     0.931133333333     0.097800000000     0          
O2       O      0.044666666667     0.927300000000     0.093966666667     0          
C1       C      0.037100000000     0.916666666667     0.083333333333     0          
C2       C      0.017933333333     0.916666666667     0.083333333333     0          
C3       C      0.008966666667     0.927633333333     0.094300000000     0          
H1       H      0.014933333333     0.934966666667     0.101633333333     0          
Zn1      Zn     0.264466666667     0.735533333333     0.097800000000     0          
O2       O      0.288666666667     0.739366666667     0.093966666667     0          
C1       C      0.296233333333     0.750000000000     0.083333333333     0          
C2       C      0.315400000000     0.750000000000     0.083333333333     0          
C3       C      0.324366666667     0.739033333333     0.094300000000     0          
H1       H      0.318400000000     0.731700000000     0.101633333333     0          
O2       O      0.239366666667     0.927300000000     0.288666666667     0          
C3       C      0.239033333333     0.927633333333     0.324366666667     0          
H1       H      0.231700000000     0.934966666667     0.318400000000     0          
O2       O      0.072700000000     0.906033333333     0.288666666667     0          
C3       C      0.072366666667     0.905700000000     0.324366666667     0          
H1       H      0.065033333333     0.898366666667     0.318400000000     0          
O2       O      0.093966666667     0.739366666667     0.288666666667     0          
C3       C      0.094300000000     0.739033333333     0.324366666667     0          
H1       H      0.101633333333     0.731700000000     0.318400000000     0          
O2       O      0.260633333333     0.760633333333     0.288666666667     0          
C3       C      0.260966666667     0.760966666667     0.324366666667     0          
H1       H      0.268300000000     0.768300000000     0.318400000000     0          
O2       O      0.239366666667     0.739366666667     0.044666666667     0          
C3       C      0.239033333333     0.739033333333     0.008966666667     0          
H1       H      0.231700000000     0.731700000000     0.014933333333     0          
O2       O      0.260633333333     0.906033333333     0.044666666667     0          
C3       C      0.260966666667     0.905700000000     0.008966666667     0          
H1       H      0.268300000000     0.898366666667     0.014933333333     0          
O2       O      0.093966666667     0.927300000000     0.044666666667     0          
C3       C      0.094300000000     0.927633333333     0.008966666667     0          
H1       H      0.101633333333     0.934966666667     0.014933333333     0          
O2       O      0.072700000000     0.760633333333     0.044666666667     0          
C3       C      0.072366666667     0.760966666667     0.008966666667     0          
H1       H      0.065033333333     0.768300000000     0.014933333333     0          
O2       O      0.288666666667     0.906033333333     0.260633333333     0          
C3       C      0.324366666667     0.905700000000     0.260966666667     0          
H1       H      0.318400000000     0.898366666667     0.268300000000     0          
O2       O      0.093966666667     0.955333333333     0.260633333333     0          
C3       C      0.094300000000     0.991033333333     0.260966666667     0          
H1       H      0.101633333333     0.985066666667     0.268300000000     0          
O2       O      0.044666666667     0.760633333333     0.260633333333     0          
C3       C      0.008966666667     0.760966666667     0.260966666667     0          
H1       H      0.014933333333     0.768300000000     0.268300000000     0          
O2       O      0.239366666667     0.711333333333     0.260633333333     0          
C3       C      0.239033333333     0.675633333333     0.260966666667     0          
H1       H      0.231700000000     0.681600000000     0.268300000000     0          
O2       O      0.288666666667     0.760633333333     0.072700000000     0          
C3       C      0.324366666667     0.760966666667     0.072366666667     0          
H1       H      0.318400000000     0.768300000000     0.065033333333     0          
O2       O      0.239366666667     0.955333333333     0.072700000000     0          
C3       C      0.239033333333     0.991033333333     0.072366666667     0          
H1       H      0.231700000000     0.985066666667     0.065033333333     0          
O2       O      0.044666666667     0.906033333333     0.072700000000     0          
C3       C      0.008966666667     0.905700000000     0.072366666667     0          
H1       H      0.014933333333     0.898366666667     0.065033333333     0          
O2       O      0.093966666667     0.711333333333     0.072700000000     0          
C3       C      0.094300000000     0.675633333333     0.072366666667     0          
H1       H      0.101633333333     0.681600000000     0.065033333333     0          
O2       O      0.260633333333     0.955333333333     0.239366666667     0          
C3       C      0.260966666667     0.991033333333     0.239033333333     0          
H1       H      0.268300000000     0.985066666667     0.231700000000     0          
O2       O      0.260633333333     0.711333333333     0.093966666667     0          
C3       C      0.260966666667     0.675633333333     0.094300000000     0          
H1       H      0.268300000000     0.681600000000     0.101633333333     0          
O2       O      0.288666666667     0.927300000000     0.093966666667     0          
C3       C      0.324366666667     0.927633333333     0.094300000000     0          
H1       H      0.318400000000     0.934966666667     0.101633333333     0          
O2       O      0.072700000000     0.955333333333     0.093966666667     0          
C3       C      0.072366666667     0.991033333333     0.094300000000     0          
H1       H      0.065033333333     0.985066666667     0.101633333333     0          
O2       O      0.044666666667     0.739366666667     0.093966666667     0          
C3       C      0.008966666667     0.739033333333     0.094300000000     0          
H1       H      0.014933333333     0.731700000000     0.101633333333     0          
O2       O      0.072700000000     0.711333333333     0.239366666667     0          
C3       C      0.072366666667     0.675633333333     0.239033333333     0          
H1       H      0.065033333333     0.681600000000     0.231700000000     0          
O2       O      0.288666666667     0.739366666667     0.239366666667     0          
C3       C      0.324366666667     0.739033333333     0.239033333333     0          
H1       H      0.318400000000     0.731700000000     0.231700000000     0          
O2       O      0.044666666667     0.927300000000     0.239366666667     0          
C3       C      0.008966666667     0.927633333333     0.239033333333     0          
H1       H      0.014933333333     0.934966666667     0.231700000000     0          
Zn1      Zn     0.097800000000     0.902200000000     0.235533333333     0          
O2       O      0.093966666667     0.906033333333     0.211333333333     0          
C1       C      0.083333333333     0.916666666667     0.203766666667     0          
C2       C      0.083333333333     0.916666666667     0.184600000000     0          
C3       C      0.094300000000     0.905700000000     0.175633333333     0          
H1       H      0.101633333333     0.898366666667     0.181600000000     0          
O2       O      0.260633333333     0.927300000000     0.211333333333     0          
C1       C      0.250000000000     0.916666666667     0.203766666667     0          
C2       C      0.250000000000     0.916666666667     0.184600000000     0          
C3       C      0.260966666667     0.927633333333     0.175633333333     0          
H1       H      0.268300000000     0.934966666667     0.181600000000     0          
Zn1      Zn     0.235533333333     0.764466666667     0.235533333333     0          
O2       O      0.239366666667     0.760633333333     0.211333333333     0          
C1       C      0.250000000000     0.750000000000     0.203766666667     0          
C2       C      0.250000000000     0.750000000000     0.184600000000     0          
C3       C      0.239033333333     0.760966666667     0.175633333333     0          
H1       H      0.231700000000     0.768300000000     0.181600000000     0          
O2       O      0.072700000000     0.739366666667     0.211333333333     0          
C1       C      0.083333333333     0.750000000000     0.203766666667     0          
C2       C      0.083333333333     0.750000000000     0.184600000000     0          
C3       C      0.072366666667     0.739033333333     0.175633333333     0          
H1       H      0.065033333333     0.731700000000     0.181600000000     0          
Zn1      Zn     0.097800000000     0.764466666667     0.097800000000     0          
O2       O      0.093966666667     0.760633333333     0.122000000000     0          
C1       C      0.083333333333     0.750000000000     0.129566666667     0          
C2       C      0.083333333333     0.750000000000     0.148733333333     0          
C3       C      0.094300000000     0.760966666667     0.157700000000     0          
H1       H      0.101633333333     0.768300000000     0.151733333333     0          
O2       O      0.072700000000     0.927300000000     0.122000000000     0          
C1       C      0.083333333333     0.916666666667     0.129566666667     0          
C2       C      0.083333333333     0.916666666667     0.148733333333     0          
C3       C      0.072366666667     0.927633333333     0.157700000000     0          
H1       H      0.065033333333     0.934966666667     0.151733333333     0          
Zn1      Zn     0.235533333333     0.902200000000     0.097800000000     0          
O2       O      0.239366666667     0.906033333333     0.122000000000     0          
C1       C      0.250000000000     0.916666666667     0.129566666667     0          
C2       C      0.250000000000     0.916666666667     0.148733333333     0          
C3       C      0.239033333333     0.905700000000     0.157700000000     0          
H1       H      0.231700000000     0.898366666667     0.151733333333     0          
O2       O      0.260633333333     0.739366666667     0.122000000000     0          
C1       C      0.250000000000     0.750000000000     0.129566666667     0          
C2       C      0.250000000000     0.750000000000     0.148733333333     0          
C3       C      0.260966666667     0.739033333333     0.157700000000     0          
H1       H      0.268300000000     0.731700000000     0.151733333333     0          
Zn1      Zn     0.235533333333     0.902200000000     0.235533333333     0          
O2       O      0.239366666667     0.878000000000     0.239366666667     0          
C1       C      0.250000000000     0.870433333333     0.250000000000     0          
C2       C      0.250000000000     0.851266666667     0.250000000000     0          
C3       C      0.239033333333     0.842300000000     0.239033333333     0          
H1       H      0.231700000000     0.848266666667     0.231700000000     0          
Zn1      Zn     0.097800000000     0.764466666667     0.235533333333     0          
O2       O      0.093966666667     0.788666666667     0.239366666667     0          
C1       C      0.083333333333     0.796233333333     0.250000000000     0          
C2       C      0.083333333333     0.815400000000     0.250000000000     0          
C3       C      0.094300000000     0.824366666667     0.239033333333     0          
H1       H      0.101633333333     0.818400000000     0.231700000000     0          
Zn1      Zn     0.097800000000     0.902200000000     0.097800000000     0          
O2       O      0.093966666667     0.878000000000     0.093966666667     0          
C1       C      0.083333333333     0.870433333333     0.083333333333     0          
C2       C      0.083333333333     0.851266666667     0.083333333333     0          
C3       C      0.094300000000     0.842300000000     0.094300000000     0          
H1       H      0.101633333333     0.848266666667     0.101633333333     0          
Zn1      Zn     0.235533333333     0.764466666667     0.097800000000     0          
O2       O      0.239366666667     0.788666666667     0.093966666667     0          
C1       C      0.250000000000     0.796233333333     0.083333333333     0          
C2       C      0.250000000000     0.815400000000     0.083333333333     0          
C3       C      0.239033333333     0.824366666667     0.094300000000     0          
H1       H      0.231700000000     0.818400000000     0.101633333333     0          
O2       O      0.072700000000     0.878000000000     0.260633333333     0          
C1       C      0.083333333333     0.870433333333     0.250000000000     0          
C2       C      0.083333333333     0.851266666667     0.250000000000     0          
C3       C      0.072366666667     0.842300000000     0.260966666667     0          
H1       H      0.065033333333     0.848266666667     0.268300000000     0          
O2       O      0.072700000000     0.788666666667     0.072700000000     0          
C1       C      0.083333333333     0.796233333333     0.083333333333     0          
C2       C      0.083333333333     0.815400000000     0.083333333333     0          
C3       C      0.072366666667     0.824366666667     0.072366666667     0          
H1       H      0.065033333333     0.818400000000     0.065033333333     0          
O2       O      0.260633333333     0.878000000000     0.072700000000     0          
C1       C      0.250000000000     0.870433333333     0.083333333333     0          
C2       C      0.250000000000     0.851266666667     0.083333333333     0          
C3       C      0.260966666667     0.842300000000     0.072366666667     0          
H1       H      0.268300000000     0.848266666667     0.065033333333     0          
O2       O      0.260633333333     0.788666666667     0.260633333333     0          
C1       C      0.250000000000     0.796233333333     0.250000000000     0          
C2       C      0.250000000000     0.815400000000     0.250000000000     0          
C3       C      0.260966666667     0.824366666667     0.260966666667     0          
H1       H      0.268300000000     0.818400000000     0.268300000000     0          
O2       O      0.239366666667     0.760633333333     0.122000000000     0          
C3       C      0.239033333333     0.760966666667     0.157700000000     0          
H1       H      0.231700000000     0.768300000000     0.151733333333     0          
O2       O      0.072700000000     0.739366666667     0.122000000000     0          
C3       C      0.072366666667     0.739033333333     0.157700000000     0          
H1       H      0.065033333333     0.731700000000     0.151733333333     0          
O2       O      0.093966666667     0.906033333333     0.122000000000     0          
C3       C      0.094300000000     0.905700000000     0.157700000000     0          
H1       H      0.101633333333     0.898366666667     0.151733333333     0          
O2       O      0.260633333333     0.927300000000     0.122000000000     0          
C3       C      0.260966666667     0.927633333333     0.157700000000     0          
H1       H      0.268300000000     0.934966666667     0.151733333333     0          
O2       O      0.239366666667     0.906033333333     0.211333333333     0          
C3       C      0.239033333333     0.905700000000     0.175633333333     0          
H1       H      0.231700000000     0.898366666667     0.181600000000     0          
O2       O      0.260633333333     0.739366666667     0.211333333333     0          
C3       C      0.260966666667     0.739033333333     0.175633333333     0          
H1       H      0.268300000000     0.731700000000     0.181600000000     0          
O2       O      0.093966666667     0.760633333333     0.211333333333     0          
C3       C      0.094300000000     0.760966666667     0.175633333333     0          
H1       H      0.101633333333     0.768300000000     0.181600000000     0          
O2       O      0.072700000000     0.927300000000     0.211333333333     0          
C3       C      0.072366666667     0.927633333333     0.175633333333     0          
H1       H      0.065033333333     0.934966666667     0.181600000000     0          
O2       O      0.093966666667     0.788666666667     0.093966666667     0          
C3       C      0.094300000000     0.824366666667     0.094300000000     0          
H1       H      0.101633333333     0.818400000000     0.101633333333     0          
O2       O      0.239366666667     0.878000000000     0.093966666667     0          
C3       C      0.239033333333     0.842300000000     0.094300000000     0          
H1       H      0.231700000000     0.848266666667     0.101633333333     0          
O2       O      0.239366666667     0.788666666667     0.239366666667     0          
C3       C      0.239033333333     0.824366666667     0.239033333333     0          
H1       H      0.231700000000     0.818400000000     0.231700000000     0          
O2       O      0.093966666667     0.878000000000     0.239366666667     0          
C3       C      0.094300000000     0.842300000000     0.239033333333     0          
H1       H      0.101633333333     0.848266666667     0.231700000000     0          
O2       O      0.260633333333     0.788666666667     0.072700000000     0          
C3       C      0.260966666667     0.824366666667     0.072366666667     0          
H1       H      0.268300000000     0.818400000000     0.065033333333     0          
O2       O      0.260633333333     0.878000000000     0.260633333333     0          
C3       C      0.260966666667     0.842300000000     0.260966666667     0          
H1       H      0.268300000000     0.848266666667     0.268300000000     0          
O2       O      0.072700000000     0.788666666667     0.260633333333     0          
C3       C      0.072366666667     0.824366666667     0.260966666667     0          
H1       H      0.065033333333     0.818400000000     0.268300000000     0          
O2       O      0.072700000000     0.878000000000     0.072700000000     0          
C3       C      0.072366666667     0.842300000000     0.072366666667     0          
H1       H      0.065033333333     0.848266666667     0.065033333333     0          
O2       O      0.211333333333     0.760633333333     0.239366666667     0          
C1       C      0.203766666667     0.750000000000     0.250000000000     0          
C2       C      0.184600000000     0.750000000000     0.250000000000     0          
C3       C      0.175633333333     0.760966666667     0.239033333333     0          
H1       H      0.181600000000     0.768300000000     0.231700000000     0          
O2       O      0.122000000000     0.906033333333     0.239366666667     0          
C1       C      0.129566666667     0.916666666667     0.250000000000     0          
C2       C      0.148733333333     0.916666666667     0.250000000000     0          
C3       C      0.157700000000     0.905700000000     0.239033333333     0          
H1       H      0.151733333333     0.898366666667     0.231700000000     0          
O2       O      0.211333333333     0.906033333333     0.093966666667     0          
C1       C      0.203766666667     0.916666666667     0.083333333333     0          
C2       C      0.184600000000     0.916666666667     0.083333333333     0          
C3       C      0.175633333333     0.905700000000     0.094300000000     0          
H1       H      0.181600000000     0.898366666667     0.101633333333     0          
O2       O      0.122000000000     0.760633333333     0.093966666667     0          
C1       C      0.129566666667     0.750000000000     0.083333333333     0          
C2       C      0.148733333333     0.750000000000     0.083333333333     0          
C3       C      0.157700000000     0.760966666667     0.094300000000     0          
H1       H      0.151733333333     0.768300000000     0.101633333333     0          
O2       O      0.211333333333     0.739366666667     0.072700000000     0          
C1       C      0.203766666667     0.750000000000     0.083333333333     0          
C2       C      0.184600000000     0.750000000000     0.083333333333     0          
C3       C      0.175633333333     0.739033333333     0.072366666667     0          
H1       H      0.181600000000     0.731700000000     0.065033333333     0          
O2       O      0.122000000000     0.927300000000     0.072700000000     0          
C1       C      0.129566666667     0.916666666667     0.083333333333     0          
C2       C      0.148733333333     0.916666666667     0.083333333333     0          
C3       C      0.157700000000     0.927633333333     0.072366666667     0          
H1       H      0.151733333333     0.934966666667     0.065033333333     0          
O2       O      0.211333333333     0.927300000000     0.260633333333     0          
C1       C      0.203766666667     0.916666666667     0.250000000000     0          
C2       C      0.184600000000     0.916666666667     0.250000000000     0          
C3       C      0.175633333333     0.927633333333     0.260966666667     0          
H1       H      0.181600000000     0.934966666667     0.268300000000     0          
O2       O      0.122000000000     0.739366666667     0.260633333333     0          
C1       C      0.129566666667     0.750000000000     0.250000000000     0          
C2       C      0.148733333333     0.750000000000     0.250000000000     0          
C3       C      0.157700000000     0.739033333333     0.260966666667     0          
H1       H      0.151733333333     0.731700000000     0.268300000000     0          
O2       O      0.122000000000     0.906033333333     0.093966666667     0          
C3       C      0.157700000000     0.905700000000     0.094300000000     0          
H1       H      0.151733333333     0.898366666667     0.101633333333     0          
O2       O      0.211333333333     0.760633333333     0.093966666667     0          
C3       C      0.175633333333     0.760966666667     0.094300000000     0          
H1       H      0.181600000000     0.768300000000     0.101633333333     0          
O2       O      0.122000000000     0.760633333333     0.239366666667     0          
C3       C      0.157700000000     0.760966666667     0.239033333333     0          
H1       H      0.151733333333     0.768300000000     0.231700000000     0          
O2       O      0.211333333333     0.906033333333     0.239366666667     0          
C3       C      0.175633333333     0.905700000000     0.239033333333     0          
H1       H      0.181600000000     0.898366666667     0.231700000000     0          
O2       O      0.122000000000     0.927300000000     0.260633333333     0          
C3       C      0.157700000000     0.927633333333     0.260966666667     0          
H1       H      0.151733333333     0.934966666667     0.268300000000     0          
O2       O      0.211333333333     0.739366666667     0.260633333333     0          
C3       C      0.175633333333     0.739033333333     0.260966666667     0          
H1       H      0.181600000000     0.731700000000     0.268300000000     0          
O2       O      0.122000000000     0.739366666667     0.072700000000     0          
C3       C      0.157700000000     0.739033333333     0.072366666667     0          
H1       H      0.151733333333     0.731700000000     0.065033333333     0          
O2       O      0.211333333333     0.927300000000     0.072700000000     0          
C3       C      0.175633333333     0.927633333333     0.072366666667     0          
H1       H      0.181600000000     0.934966666667     0.065033333333     0          
Zn1      Zn     0.097800000000     0.735533333333     0.402200000000     0          
O1       O      0.083333333333     0.750000000000     0.416666666667     0          
O2       O      0.093966666667     0.739366666667     0.378000000000     0          
C1       C      0.083333333333     0.750000000000     0.370433333333     0          
C2       C      0.083333333333     0.750000000000     0.351266666667     0          
C3       C      0.094300000000     0.739033333333     0.342300000000     0          
H1       H      0.101633333333     0.731700000000     0.348266666667     0          
Zn1      Zn     0.264466666667     0.764466666667     0.402200000000     0          
O1       O      0.250000000000     0.750000000000     0.416666666667     0          
O2       O      0.260633333333     0.760633333333     0.378000000000     0          
C1       C      0.250000000000     0.750000000000     0.370433333333     0          
C2       C      0.250000000000     0.750000000000     0.351266666667     0          
C3       C      0.260966666667     0.760966666667     0.342300000000     0          
H1       H      0.268300000000     0.768300000000     0.348266666667     0          
Zn1      Zn     0.235533333333     0.931133333333     0.402200000000     0          
O1       O      0.250000000000     0.916666666667     0.416666666667     0          
O2       O      0.239366666667     0.927300000000     0.378000000000     0          
C1       C      0.250000000000     0.916666666667     0.370433333333     0          
C2       C      0.250000000000     0.916666666667     0.351266666667     0          
C3       C      0.239033333333     0.927633333333     0.342300000000     0          
H1       H      0.231700000000     0.934966666667     0.348266666667     0          
Zn1      Zn     0.068866666667     0.902200000000     0.402200000000     0          
O1       O      0.083333333333     0.916666666667     0.416666666667     0          
O2       O      0.072700000000     0.906033333333     0.378000000000     0          
C1       C      0.083333333333     0.916666666667     0.370433333333     0          
C2       C      0.083333333333     0.916666666667     0.351266666667     0          
C3       C      0.072366666667     0.905700000000     0.342300000000     0          
H1       H      0.065033333333     0.898366666667     0.348266666667     0          
Zn1      Zn     0.097800000000     0.931133333333     0.597800000000     0          
O1       O      0.083333333333     0.916666666667     0.583333333333     0          
O2       O      0.093966666667     0.927300000000     0.622000000000     0          
C1       C      0.083333333333     0.916666666667     0.629566666667     0          
C2       C      0.083333333333     0.916666666667     0.648733333333     0          
C3       C      0.094300000000     0.927633333333     0.657700000000     0          
H1       H      0.101633333333     0.934966666667     0.651733333333     0          
Zn1      Zn     0.068866666667     0.764466666667     0.597800000000     0          
O1       O      0.083333333333     0.750000000000     0.583333333333     0          
O2       O      0.072700000000     0.760633333333     0.622000000000     0          
C1       C      0.083333333333     0.750000000000     0.629566666667     0          
C2       C      0.083333333333     0.750000000000     0.648733333333     0          
C3       C      0.072366666667     0.760966666667     0.657700000000     0          
H1       H      0.065033333333     0.768300000000     0.651733333333     0          
Zn1      Zn     0.235533333333     0.735533333333     0.597800000000     0          
O1       O      0.250000000000     0.750000000000     0.583333333333     0          
O2       O      0.239366666667     0.739366666667     0.622000000000     0          
C1       C      0.250000000000     0.750000000000     0.629566666667     0          
C2       C      0.250000000000     0.750000000000     0.648733333333     0          
C3       C      0.239033333333     0.739033333333     0.657700000000     0          
H1       H      0.231700000000     0.731700000000     0.651733333333     0          
Zn1      Zn     0.264466666667     0.902200000000     0.597800000000     0          
O1       O      0.250000000000     0.916666666667     0.583333333333     0          
O2       O      0.260633333333     0.906033333333     0.622000000000     0          
C1       C      0.250000000000     0.916666666667     0.629566666667     0          
C2       C      0.250000000000     0.916666666667     0.648733333333     0          
C3       C      0.260966666667     0.905700000000     0.657700000000     0          
H1       H      0.268300000000     0.898366666667     0.651733333333     0          
Zn1      Zn     0.068866666667     0.764466666667     0.402200000000     0          
O2       O      0.044666666667     0.760633333333     0.406033333333     0          
C1       C      0.037100000000     0.750000000000     0.416666666667     0          
C2       C      0.017933333333     0.750000000000     0.416666666667     0          
C3       C      0.008966666667     0.760966666667     0.405700000000     0          
H1       H      0.014933333333     0.768300000000     0.398366666667     0          
Zn1      Zn     0.235533333333     0.735533333333     0.402200000000     0          
O2       O      0.239366666667     0.711333333333     0.406033333333     0          
C1       C      0.250000000000     0.703766666667     0.416666666667     0          
C2       C      0.250000000000     0.684600000000     0.416666666667     0          
C3       C      0.239033333333     0.675633333333     0.405700000000     0          
H1       H      0.231700000000     0.681600000000     0.398366666667     0          
Zn1      Zn     0.264466666667     0.902200000000     0.402200000000     0          
O2       O      0.288666666667     0.906033333333     0.406033333333     0          
C1       C      0.296233333333     0.916666666667     0.416666666667     0          
C2       C      0.315400000000     0.916666666667     0.416666666667     0          
C3       C      0.324366666667     0.905700000000     0.405700000000     0          
H1       H      0.318400000000     0.898366666667     0.398366666667     0          
Zn1      Zn     0.097800000000     0.931133333333     0.402200000000     0          
O2       O      0.093966666667     0.955333333333     0.406033333333     0          
C1       C      0.083333333333     0.962900000000     0.416666666667     0          
C2       C      0.083333333333     0.982066666667     0.416666666667     0          
C3       C      0.094300000000     0.991033333333     0.405700000000     0          
H1       H      0.101633333333     0.985066666667     0.398366666667     0          
Zn1      Zn     0.068866666667     0.902200000000     0.597800000000     0          
O2       O      0.044666666667     0.906033333333     0.593966666667     0          
C1       C      0.037100000000     0.916666666667     0.583333333333     0          
C2       C      0.017933333333     0.916666666667     0.583333333333     0          
C3       C      0.008966666667     0.905700000000     0.594300000000     0          
H1       H      0.014933333333     0.898366666667     0.601633333333     0          
Zn1      Zn     0.097800000000     0.735533333333     0.597800000000     0          
O2       O      0.093966666667     0.711333333333     0.593966666667     0          
C1       C      0.083333333333     0.703766666667     0.583333333333     0          
C2       C      0.083333333333     0.684600000000     0.583333333333     0          
C3       C      0.094300000000     0.675633333333     0.594300000000     0          
H1       H      0.101633333333     0.681600000000     0.601633333333     0          
Zn1      Zn     0.264466666667     0.764466666667     0.597800000000     0          
O2       O      0.288666666667     0.760633333333     0.593966666667     0          
C1       C      0.296233333333     0.750000000000     0.583333333333     0          
C2       C      0.315400000000     0.750000000000     0.583333333333     0          
C3       C      0.324366666667     0.760966666667     0.594300000000     0          
H1       H      0.318400000000     0.768300000000     0.601633333333     0          
Zn1      Zn     0.235533333333     0.931133333333     0.597800000000     0          
O2       O      0.239366666667     0.955333333333     0.593966666667     0          
C1       C      0.250000000000     0.962900000000     0.583333333333     0          
C2       C      0.250000000000     0.982066666667     0.583333333333     0          
C3       C      0.239033333333     0.991033333333     0.594300000000     0          
H1       H      0.231700000000     0.985066666667     0.601633333333     0          
Zn1      Zn     0.068866666667     0.735533333333     0.431133333333     0          
O2       O      0.072700000000     0.711333333333     0.427300000000     0          
C1       C      0.083333333333     0.703766666667     0.416666666667     0          
C2       C      0.083333333333     0.684600000000     0.416666666667     0          
C3       C      0.072366666667     0.675633333333     0.427633333333     0          
H1       H      0.065033333333     0.681600000000     0.434966666667     0          
Zn1      Zn     0.068866666667     0.931133333333     0.568866666667     0          
O2       O      0.072700000000     0.955333333333     0.572700000000     0          
C1       C      0.083333333333     0.962900000000     0.583333333333     0          
C2       C      0.083333333333     0.982066666667     0.583333333333     0          
C3       C      0.072366666667     0.991033333333     0.572366666667     0          
H1       H      0.065033333333     0.985066666667     0.565033333333     0          
Zn1      Zn     0.068866666667     0.735533333333     0.568866666667     0          
O2       O      0.044666666667     0.739366666667     0.572700000000     0          
C1       C      0.037100000000     0.750000000000     0.583333333333     0          
C2       C      0.017933333333     0.750000000000     0.583333333333     0          
C3       C      0.008966666667     0.739033333333     0.572366666667     0          
H1       H      0.014933333333     0.731700000000     0.565033333333     0          
Zn1      Zn     0.264466666667     0.735533333333     0.568866666667     0          
O2       O      0.260633333333     0.711333333333     0.572700000000     0          
C1       C      0.250000000000     0.703766666667     0.583333333333     0          
C2       C      0.250000000000     0.684600000000     0.583333333333     0          
C3       C      0.260966666667     0.675633333333     0.572366666667     0          
H1       H      0.268300000000     0.681600000000     0.565033333333     0          
Zn1      Zn     0.264466666667     0.931133333333     0.568866666667     0          
O2       O      0.288666666667     0.927300000000     0.572700000000     0          
C1       C      0.296233333333     0.916666666667     0.583333333333     0          
C2       C      0.315400000000     0.916666666667     0.583333333333     0          
C3       C      0.324366666667     0.927633333333     0.572366666667     0          
H1       H      0.318400000000     0.934966666667     0.565033333333     0          
Zn1      Zn     0.264466666667     0.931133333333     0.431133333333     0          
O2       O      0.260633333333     0.955333333333     0.427300000000     0          
C1       C      0.250000000000     0.962900000000     0.416666666667     0          
C2       C      0.250000000000     0.982066666667     0.416666666667     0          
C3       C      0.260966666667     0.991033333333     0.427633333333     0          
H1       H      0.268300000000     0.985066666667     0.434966666667     0          
Zn1      Zn     0.068866666667     0.931133333333     0.431133333333     0          
O2       O      0.044666666667     0.927300000000     0.427300000000     0          
C1       C      0.037100000000     0.916666666667     0.416666666667     0          
C2       C      0.017933333333     0.916666666667     0.416666666667     0          
C3       C      0.008966666667     0.927633333333     0.427633333333     0          
H1       H      0.014933333333     0.934966666667     0.434966666667     0          
Zn1      Zn     0.264466666667     0.735533333333     0.431133333333     0          
O2       O      0.288666666667     0.739366666667     0.427300000000     0          
C1       C      0.296233333333     0.750000000000     0.416666666667     0          
C2       C      0.315400000000     0.750000000000     0.416666666667     0          
C3       C      0.324366666667     0.739033333333     0.427633333333     0          
H1       H      0.318400000000     0.731700000000     0.434966666667     0          
O2       O      0.239366666667     0.927300000000     0.622000000000     0          
C3       C      0.239033333333     0.927633333333     0.657700000000     0          
H1       H      0.231700000000     0.934966666667     0.651733333333     0          
O2       O      0.072700000000     0.906033333333     0.622000000000     0          
C3       C      0.072366666667     0.905700000000     0.657700000000     0          
H1       H      0.065033333333     0.898366666667     0.651733333333     0          
O2       O      0.093966666667     0.739366666667     0.622000000000     0          
C3       C      0.094300000000     0.739033333333     0.657700000000     0          
H1       H      0.101633333333     0.731700000000     0.651733333333     0          
O2       O      0.260633333333     0.760633333333     0.622000000000     0          
C3       C      0.260966666667     0.760966666667     0.657700000000     0          
H1       H      0.268300000000     0.768300000000     0.651733333333     0          
O2       O      0.239366666667     0.739366666667     0.378000000000     0          
C3       C      0.239033333333     0.739033333333     0.342300000000     0          
H1       H      0.231700000000     0.731700000000     0.348266666667     0          
O2       O      0.260633333333     0.906033333333     0.378000000000     0          
C3       C      0.260966666667     0.905700000000     0.342300000000     0          
H1       H      0.268300000000     0.898366666667     0.348266666667     0          
O2       O      0.093966666667     0.927300000000     0.378000000000     0          
C3       C      0.094300000000     0.927633333333     0.342300000000     0          
H1       H      0.101633333333     0.934966666667     0.348266666667     0          
O2       O      0.072700000000     0.760633333333     0.378000000000     0          
C3       C      0.072366666667     0.760966666667     0.342300000000     0          
H1       H      0.065033333333     0.768300000000     0.348266666667     0          
O2       O      0.288666666667     0.906033333333     0.593966666667     0          
C3       C      0.324366666667     0.905700000000     0.594300000000     0          
H1       H      0.318400000000     0.898366666667     0.601633333333     0          
O2       O      0.093966666667     0.955333333333     0.593966666667     0          
C3       C      0.094300000000     0.991033333333     0.594300000000     0          
H1       H      0.101633333333     0.985066666667     0.601633333333     0          
O2       O      0.044666666667     0.760633333333     0.593966666667     0          
C3       C      0.008966666667     0.760966666667     0.594300000000     0          
H1       H      0.014933333333     0.768300000000     0.601633333333     0          
O2       O      0.239366666667     0.711333333333     0.593966666667     0          
C3       C      0.239033333333     0.675633333333     0.594300000000     0          
H1       H      0.231700000000     0.681600000000     0.601633333333     0          
O2       O      0.288666666667     0.760633333333     0.406033333333     0          
C3       C      0.324366666667     0.760966666667     0.405700000000     0          
H1       H      0.318400000000     0.768300000000     0.398366666667     0          
O2       O      0.239366666667     0.955333333333     0.406033333333     0          
C3       C      0.239033333333     0.991033333333     0.405700000000     0          
H1       H      0.231700000000     0.985066666667     0.398366666667     0          
O2       O      0.044666666667     0.906033333333     0.406033333333     0          
C3       C      0.008966666667     0.905700000000     0.405700000000     0          
H1       H      0.014933333333     0.898366666667     0.398366666667     0          
O2       O      0.093966666667     0.711333333333     0.406033333333     0          
C3       C      0.094300000000     0.675633333333     0.405700000000     0          
H1       H      0.101633333333     0.681600000000     0.398366666667     0          
O2       O      0.260633333333     0.955333333333     0.572700000000     0          
C3       C      0.260966666667     0.991033333333     0.572366666667     0          
H1       H      0.268300000000     0.985066666667     0.565033333333     0          
O2       O      0.260633333333     0.711333333333     0.427300000000     0          
C3       C      0.260966666667     0.675633333333     0.427633333333     0          
H1       H      0.268300000000     0.681600000000     0.434966666667     0          
O2       O      0.288666666667     0.927300000000     0.427300000000     0          
C3       C      0.324366666667     0.927633333333     0.427633333333     0          
H1       H      0.318400000000     0.934966666667     0.434966666667     0          
O2       O      0.072700000000     0.955333333333     0.427300000000     0          
C3       C      0.072366666667     0.991033333333     0.427633333333     0          
H1       H      0.065033333333     0.985066666667     0.434966666667     0          
O2       O      0.044666666667     0.739366666667     0.427300000000     0          
C3       C      0.008966666667     0.739033333333     0.427633333333     0          
H1       H      0.014933333333     0.731700000000     0.434966666667     0          
O2       O      0.072700000000     0.711333333333     0.572700000000     0          
C3       C      0.072366666667     0.675633333333     0.572366666667     0          
H1       H      0.065033333333     0.681600000000     0.565033333333     0          
O2       O      0.288666666667     0.739366666667     0.572700000000     0          
C3       C      0.324366666667     0.739033333333     0.572366666667     0          
H1       H      0.318400000000     0.731700000000     0.565033333333     0          
O2       O      0.044666666667     0.927300000000     0.572700000000     0          
C3       C      0.008966666667     0.927633333333     0.572366666667     0          
H1       H      0.014933333333     0.934966666667     0.565033333333     0          
Zn1      Zn     0.097800000000     0.902200000000     0.568866666667     0          
O2       O      0.093966666667     0.906033333333     0.544666666667     0          
C1       C      0.083333333333     0.916666666667     0.537100000000     0          
C2       C      0.083333333333     0.916666666667     0.517933333333     0          
C3       C      0.094300000000     0.905700000000     0.508966666667     0          
H1       H      0.101633333333     0.898366666667     0.514933333333     0          
O2       O      0.260633333333     0.927300000000     0.544666666667     0          
C1       C      0.250000000000     0.916666666667     0.537100000000     0          
C2       C      0.250000000000     0.916666666667     0.517933333333     0          
C3       C      0.260966666667     0.927633333333     0.508966666667     0          
H1       H      0.268300000000     0.934966666667     0.514933333333     0          
Zn1      Zn     0.235533333333     0.764466666667     0.568866666667     0          
O2       O      0.239366666667     0.760633333333     0.544666666667     0          
C1       C      0.250000000000     0.750000000000     0.537100000000     0          
C2       C      0.250000000000     0.750000000000     0.517933333333     0          
C3       C      0.239033333333     0.760966666667     0.508966666667     0          
H1       H      0.231700000000     0.768300000000     0.514933333333     0          
O2       O      0.072700000000     0.739366666667     0.544666666667     0          
C1       C      0.083333333333     0.750000000000     0.537100000000     0          
C2       C      0.083333333333     0.750000000000     0.517933333333     0          
C3       C      0.072366666667     0.739033333333     0.508966666667     0          
H1       H      0.065033333333     0.731700000000     0.514933333333     0          
Zn1      Zn     0.097800000000     0.764466666667     0.431133333333     0          
O2       O      0.093966666667     0.760633333333     0.455333333333     0          
C1       C      0.083333333333     0.750000000000     0.462900000000     0          
C2       C      0.083333333333     0.750000000000     0.482066666667     0          
C3       C      0.094300000000     0.760966666667     0.491033333333     0          
H1       H      0.101633333333     0.768300000000     0.485066666667     0          
O2       O      0.072700000000     0.927300000000     0.455333333333     0          
C1       C      0.083333333333     0.916666666667     0.462900000000     0          
C2       C      0.083333333333     0.916666666667     0.482066666667     0          
C3       C      0.072366666667     0.927633333333     0.491033333333     0          
H1       H      0.065033333333     0.934966666667     0.485066666667     0          
Zn1      Zn     0.235533333333     0.902200000000     0.431133333333     0          
O2       O      0.239366666667     0.906033333333     0.455333333333     0          
C1       C      0.250000000000     0.916666666667     0.462900000000     0          
C2       C      0.250000000000     0.916666666667     0.482066666667     0          
C3       C      0.239033333333     0.905700000000     0.491033333333     0          
H1       H      0.231700000000     0.898366666667     0.485066666667     0          
O2       O      0.260633333333     0.739366666667     0.455333333333     0          
C1       C      0.250000000000     0.750000000000     0.462900000000     0          
C2       C      0.250000000000     0.750000000000     0.482066666667     0          
C3       C      0.260966666667     0.739033333333     0.491033333333     0          
H1       H      0.268300000000     0.731700000000     0.485066666667     0          
Zn1      Zn     0.235533333333     0.902200000000     0.568866666667     0          
O2       O      0.239366666667     0.878000000000     0.572700000000     0          
C1       C      0.250000000000     0.870433333333     0.583333333333     0          
C2       C      0.250000000000     0.851266666667     0.583333333333     0          
C3       C      0.239033333333     0.842300000000     0.572366666667     0          
H1       H      0.231700000000     0.848266666667     0.565033333333     0          
Zn1      Zn     0.097800000000     0.764466666667     0.568866666667     0          
O2       O      0.093966666667     0.788666666667     0.572700000000     0          
C1       C      0.083333333333     0.796233333333     0.583333333333     0          
C2       C      0.083333333333     0.815400000000     0.583333333333     0          
C3       C      0.094300000000     0.824366666667     0.572366666667     0          
H1       H      0.101633333333     0.818400000000     0.565033333333     0          
Zn1      Zn     0.097800000000     0.902200000000     0.431133333333     0          
O2       O      0.093966666667     0.878000000000     0.427300000000     0          
C1       C      0.083333333333     0.870433333333     0.416666666667     0          
C2       C      0.083333333333     0.851266666667     0.416666666667     0          
C3       C      0.094300000000     0.842300000000     0.427633333333     0          
H1       H      0.101633333333     0.848266666667     0.434966666667     0          
Zn1      Zn     0.235533333333     0.764466666667     0.431133333333     0          
O2       O      0.239366666667     0.788666666667     0.427300000000     0          
C1       C      0.250000000000     0.796233333333     0.416666666667     0          
C2       C      0.250000000000     0.815400000000     0.416666666667     0          
C3       C      0.239033333333     0.824366666667     0.427633333333     0          
H1       H      0.231700000000     0.818400000000     0.434966666667     0          
O2       O      0.072700000000     0.878000000000     0.593966666667     0          
C1       C      0.083333333333     0.870433333333     0.583333333333     0          
C2       C      0.083333333333     0.851266666667     0.583333333333     0          
C3       C      0.072366666667     0.842300000000     0.594300000000     0          
H1       H      0.065033333333     0.848266666667     0.601633333333     0          
O2       O      0.072700000000     0.788666666667     0.406033333333     0          
C1       C      0.083333333333     0.796233333333     0.416666666667     0          
C2       C      0.083333333333     0.815400000000     0.416666666667     0          
C3       C      0.072366666667     0.824366666667     0.405700000000     0          
H1       H      0.065033333333     0.818400000000     0.398366666667     0          
O2       O      0.260633333333     0.878000000000     0.406033333333     0          
C1       C      0.250000000000     0.870433333333     0.416666666667     0          
C2       C      0.250000000000     0.851266666667     0.416666666667     0          
C3       C      0.260966666667     0.842300000000     0.405700000000     0          
H1       H      0.268300000000     0.848266666667     0.398366666667     0          
O2       O      0.260633333333     0.788666666667     0.593966666667     0          
C1       C      0.250000000000     0.796233333333     0.583333333333     0          
C2       C      0.250000000000     0.815400000000     0.583333333333     0          
C3       C      0.260966666667     0.824366666667     0.594300000000     0          
H1       H      0.268300000000     0.818400000000     0.601633333333     0          
O2       O      0.239366666667     0.760633333333     0.455333333333     0          
C3       C      0.239033333333     0.760966666667     0.491033333333     0          
H1       H      0.231700000000     0.768300000000     0.485066666667     0          
O2       O      0.072700000000     0.739366666667     0.455333333333     0          
C3       C      0.072366666667     0.739033333333     0.491033333333     0          
H1       H      0.065033333333     0.731700000000     0.485066666667     0          
O2       O      0.093966666667     0.906033333333     0.455333333333     0          
C3       C      0.094300000000     0.905700000000     0.491033333333     0          
H1       H      0.101633333333     0.898366666667     0.485066666667     0          
O2       O      0.260633333333     0.927300000000     0.455333333333     0          
C3       C      0.260966666667     0.927633333333     0.491033333333     0          
H1       H      0.268300000000     0.934966666667     0.485066666667     0          
O2       O      0.239366666667     0.906033333333     0.544666666667     0          
C3       C      0.239033333333     0.905700000000     0.508966666667     0          
H1       H      0.231700000000     0.898366666667     0.514933333333     0          
O2       O      0.260633333333     0.739366666667     0.544666666667     0          
C3       C      0.260966666667     0.739033333333     0.508966666667     0          
H1       H      0.268300000000     0.731700000000     0.514933333333     0          
O2       O      0.093966666667     0.760633333333     0.544666666667     0          
C3       C      0.094300000000     0.760966666667     0.508966666667     0          
H1       H      0.101633333333     0.768300000000     0.514933333333     0          
O2       O      0.072700000000     0.927300000000     0.544666666667     0          
C3       C      0.072366666667     0.927633333333     0.508966666667     0          
H1       H      0.065033333333     0.934966666667     0.514933333333     0          
O2       O      0.093966666667     0.788666666667     0.427300000000     0          
C3       C      0.094300000000     0.824366666667     0.427633333333     0          
H1       H      0.101633333333     0.818400000000     0.434966666667     0          
O2       O      0.239366666667     0.878000000000     0.427300000000     0          
C3       C      0.239033333333     0.842300000000     0.427633333333     0          
H1       H      0.231700000000     0.848266666667     0.434966666667     0          
O2       O      0.239366666667     0.788666666667     0.572700000000     0          
C3       C      0.239033333333     0.824366666667     0.572366666667     0          
H1       H      0.231700000000     0.818400000000     0.565033333333     0          
O2       O      0.093966666667     0.878000000000     0.572700000000     0          
C3       C      0.094300000000     0.842300000000     0.572366666667     0          
H1       H      0.101633333333     0.848266666667     0.565033333333     0          
O2       O      0.260633333333     0.788666666667     0.406033333333     0          
C3       C      0.260966666667     0.824366666667     0.405700000000     0          
H1       H      0.268300000000     0.818400000000     0.398366666667     0          
O2       O      0.260633333333     0.878000000000     0.593966666667     0          
C3       C      0.260966666667     0.842300000000     0.594300000000     0          
H1       H      0.268300000000     0.848266666667     0.601633333333     0          
O2       O      0.072700000000     0.788666666667     0.593966666667     0          
C3       C      0.072366666667     0.824366666667     0.594300000000     0          
H1       H      0.065033333333     0.818400000000     0.601633333333     0          
O2       O      0.072700000000     0.878000000000     0.406033333333     0          
C3       C      0.072366666667     0.842300000000     0.405700000000     0          
H1       H      0.065033333333     0.848266666667     0.398366666667     0          
O2       O      0.211333333333     0.760633333333     0.572700000000     0          
C1       C      0.203766666667     0.750000000000     0.583333333333     0          
C2       C      0.184600000000     0.750000000000     0.583333333333     0          
C3       C      0.175633333333     0.760966666667     0.572366666667     0          
H1       H      0.181600000000     0.768300000000     0.565033333333     0          
O2       O      0.122000000000     0.906033333333     0.572700000000     0          
C1       C      0.129566666667     0.916666666667     0.583333333333     0          
C2       C      0.148733333333     0.916666666667     0.583333333333     0          
C3       C      0.157700000000     0.905700000000     0.572366666667     0          
H1       H      0.151733333333     0.898366666667     0.565033333333     0          
O2       O      0.211333333333     0.906033333333     0.427300000000     0          
C1       C      0.203766666667     0.916666666667     0.416666666667     0          
C2       C      0.184600000000     0.916666666667     0.416666666667     0          
C3       C      0.175633333333     0.905700000000     0.427633333333     0          
H1       H      0.181600000000     0.898366666667     0.434966666667     0          
O2       O      0.122000000000     0.760633333333     0.427300000000     0          
C1       C      0.129566666667     0.750000000000     0.416666666667     0          
C2       C      0.148733333333     0.750000000000     0.416666666667     0          
C3       C      0.157700000000     0.760966666667     0.427633333333     0          
H1       H      0.151733333333     0.768300000000     0.434966666667     0          
O2       O      0.211333333333     0.739366666667     0.406033333333     0          
C1       C      0.203766666667     0.750000000000     0.416666666667     0          
C2       C      0.184600000000     0.750000000000     0.416666666667     0          
C3       C      0.175633333333     0.739033333333     0.405700000000     0          
H1       H      0.181600000000     0.731700000000     0.398366666667     0          
O2       O      0.122000000000     0.927300000000     0.406033333333     0          
C1       C      0.129566666667     0.916666666667     0.416666666667     0          
C2       C      0.148733333333     0.916666666667     0.416666666667     0          
C3       C      0.157700000000     0.927633333333     0.405700000000     0          
H1       H      0.151733333333     0.934966666667     0.398366666667     0          
O2       O      0.211333333333     0.927300000000     0.593966666667     0          
C1       C      0.203766666667     0.916666666667     0.583333333333     0          
C2       C      0.184600000000     0.916666666667     0.583333333333     0          
C3       C      0.175633333333     0.927633333333     0.594300000000     0          
H1       H      0.181600000000     0.934966666667     0.601633333333     0          
O2       O      0.122000000000     0.739366666667     0.593966666667     0          
C1       C      0.129566666667     0.750000000000     0.583333333333     0          
C2       C      0.148733333333     0.750000000000     0.583333333333     0          
C3       C      0.157700000000     0.739033333333     0.594300000000     0          
H1       H      0.151733333333     0.731700000000     0.601633333333     0          
O2       O      0.122000000000     0.906033333333     0.427300000000     0          
C3       C      0.157700000000     0.905700000000     0.427633333333     0          
H1       H      0.151733333333     0.898366666667     0.434966666667     0          
O2       O      0.211333333333     0.760633333333     0.427300000000     0          
C3       C      0.175633333333     0.760966666667     0.427633333333     0          
H1       H      0.181600000000     0.768300000000     0.434966666667     0          
O2       O      0.122000000000     0.760633333333     0.572700000000     0          
C3       C      0.157700000000     0.760966666667     0.572366666667     0          
H1       H      0.151733333333     0.768300000000     0.565033333333     0          
O2       O      0.211333333333     0.906033333333     0.572700000000     0          
C3       C      0.175633333333     0.905700000000     0.572366666667     0          
H1       H      0.181600000000     0.898366666667     0.565033333333     0          
O2       O      0.122000000000     0.927300000000     0.593966666667     0          
C3       C      0.157700000000     0.927633333333     0.594300000000     0          
H1       H      0.151733333333     0.934966666667     0.601633333333     0          
O2       O      0.211333333333     0.739366666667     0.593966666667     0          
C3       C      0.175633333333     0.739033333333     0.594300000000     0          
H1       H      0.181600000000     0.731700000000     0.601633333333     0          
O2       O      0.122000000000     0.739366666667     0.406033333333     0          
C3       C      0.157700000000     0.739033333333     0.405700000000     0          
H1       H      0.151733333333     0.731700000000     0.398366666667     0          
O2       O      0.211333333333     0.927300000000     0.406033333333     0          
C3       C      0.175633333333     0.927633333333     0.405700000000     0          
H1       H      0.181600000000     0.934966666667     0.398366666667     0          
Zn1      Zn     0.097800000000     0.735533333333     0.735533333333     0          
O1       O      0.083333333333     0.750000000000     0.750000000000     0          
O2       O      0.093966666667     0.739366666667     0.711333333333     0          
C1       C      0.083333333333     0.750000000000     0.703766666667     0          
C2       C      0.083333333333     0.750000000000     0.684600000000     0          
C3       C      0.094300000000     0.739033333333     0.675633333333     0          
H1       H      0.101633333333     0.731700000000     0.681600000000     0          
Zn1      Zn     0.264466666667     0.764466666667     0.735533333333     0          
O1       O      0.250000000000     0.750000000000     0.750000000000     0          
O2       O      0.260633333333     0.760633333333     0.711333333333     0          
C1       C      0.250000000000     0.750000000000     0.703766666667     0          
C2       C      0.250000000000     0.750000000000     0.684600000000     0          
C3       C      0.260966666667     0.760966666667     0.675633333333     0          
H1       H      0.268300000000     0.768300000000     0.681600000000     0          
Zn1      Zn     0.235533333333     0.931133333333     0.735533333333     0          
O1       O      0.250000000000     0.916666666667     0.750000000000     0          
O2       O      0.239366666667     0.927300000000     0.711333333333     0          
C1       C      0.250000000000     0.916666666667     0.703766666667     0          
C2       C      0.250000000000     0.916666666667     0.684600000000     0          
C3       C      0.239033333333     0.927633333333     0.675633333333     0          
H1       H      0.231700000000     0.934966666667     0.681600000000     0          
Zn1      Zn     0.068866666667     0.902200000000     0.735533333333     0          
O1       O      0.083333333333     0.916666666667     0.750000000000     0          
O2       O      0.072700000000     0.906033333333     0.711333333333     0          
C1       C      0.083333333333     0.916666666667     0.703766666667     0          
C2       C      0.083333333333     0.916666666667     0.684600000000     0          
C3       C      0.072366666667     0.905700000000     0.675633333333     0          
H1       H      0.065033333333     0.898366666667     0.681600000000     0          
Zn1      Zn     0.097800000000     0.931133333333     0.931133333333     0          
O1       O      0.083333333333     0.916666666667     0.916666666667     0          
O2       O      0.093966666667     0.927300000000     0.955333333333     0          
C1       C      0.083333333333     0.916666666667     0.962900000000     0          
C2       C      0.083333333333     0.916666666667     0.982066666667     0          
C3       C      0.094300000000     0.927633333333     0.991033333333     0          
H1       H      0.101633333333     0.934966666667     0.985066666667     0          
Zn1      Zn     0.068866666667     0.764466666667     0.931133333333     0          
O1       O      0.083333333333     0.750000000000     0.916666666667     0          
O2       O      0.072700000000     0.760633333333     0.955333333333     0          
C1       C      0.083333333333     0.750000000000     0.962900000000     0          
C2       C      0.083333333333     0.750000000000     0.982066666667     0          
C3       C      0.072366666667     0.760966666667     0.991033333333     0          
H1       H      0.065033333333     0.768300000000     0.985066666667     0          
Zn1      Zn     0.235533333333     0.735533333333     0.931133333333     0          
O1       O      0.250000000000     0.750000000000     0.916666666667     0          
O2       O      0.239366666667     0.739366666667     0.955333333333     0          
C1       C      0.250000000000     0.750000000000     0.962900000000     0          
C2       C      0.250000000000     0.750000000000     0.982066666667     0          
C3       C      0.239033333333     0.739033333333     0.991033333333     0          
H1       H      0.231700000000     0.731700000000     0.985066666667     0          
Zn1      Zn     0.264466666667     0.902200000000     0.931133333333     0          
O1       O      0.250000000000     0.916666666667     0.916666666667     0          
O2       O      0.260633333333     0.906033333333     0.955333333333     0          
C1       C      0.250000000000     0.916666666667     0.962900000000     0          
C2       C      0.250000000000     0.916666666667     0.982066666667     0          
C3       C      0.260966666667     0.905700000000     0.991033333333     0          
H1       H      0.268300000000     0.898366666667     0.985066666667     0          
Zn1      Zn     0.068866666667     0.764466666667     0.735533333333     0          
O2       O      0.044666666667     0.760633333333     0.739366666667     0          
C1       C      0.037100000000     0.750000000000     0.750000000000     0          
C2       C      0.017933333333     0.750000000000     0.750000000000     0          
C3       C      0.008966666667     0.760966666667     0.739033333333     0          
H1       H      0.014933333333     0.768300000000     0.731700000000     0          
Zn1      Zn     0.235533333333     0.735533333333     0.735533333333     0          
O2       O      0.239366666667     0.711333333333     0.739366666667     0          
C1       C      0.250000000000     0.703766666667     0.750000000000     0          
C2       C      0.250000000000     0.684600000000     0.750000000000     0          
C3       C      0.239033333333     0.675633333333     0.739033333333     0          
H1       H      0.231700000000     0.681600000000     0.731700000000     0          
Zn1      Zn     0.264466666667     0.902200000000     0.735533333333     0          
O2       O      0.288666666667     0.906033333333     0.739366666667     0          
C1       C      0.296233333333     0.916666666667     0.750000000000     0          
C2       C      0.315400000000     0.916666666667     0.750000000000     0          
C3       C      0.324366666667     0.905700000000     0.739033333333     0          
H1       H      0.318400000000     0.898366666667     0.731700000000     0          
Zn1      Zn     0.097800000000     0.931133333333     0.735533333333     0          
O2       O      0.093966666667     0.955333333333     0.739366666667     0          
C1       C      0.083333333333     0.962900000000     0.750000000000     0          
C2       C      0.083333333333     0.982066666667     0.750000000000     0          
C3       C      0.094300000000     0.991033333333     0.739033333333     0          
H1       H      0.101633333333     0.985066666667     0.731700000000     0          
Zn1      Zn     0.068866666667     0.902200000000     0.931133333333     0          
O2       O      0.044666666667     0.906033333333     0.927300000000     0          
C1       C      0.037100000000     0.916666666667     0.916666666667     0          
C2       C      0.017933333333     0.916666666667     0.916666666667     0          
C3       C      0.008966666667     0.905700000000     0.927633333333     0          
H1       H      0.014933333333     0.898366666667     0.934966666667     0          
Zn1      Zn     0.097800000000     0.735533333333     0.931133333333     0          
O2       O      0.093966666667     0.711333333333     0.927300000000     0          
C1       C      0.083333333333     0.703766666667     0.916666666667     0          
C2       C      0.083333333333     0.684600000000     0.916666666667     0          
C3       C      0.094300000000     0.675633333333     0.927633333333     0          
H1       H      0.101633333333     0.681600000000     0.934966666667     0          
Zn1      Zn     0.264466666667     0.764466666667     0.931133333333     0          
O2       O      0.288666666667     0.760633333333     0.927300000000     0          
C1       C      0.296233333333     0.750000000000     0.916666666667     0          
C2       C      0.315400000000     0.750000000000     0.916666666667     0          
C3       C      0.324366666667     0.760966666667     0.927633333333     0          
H1       H      0.318400000000     0.768300000000     0.934966666667     0          
Zn1      Zn     0.235533333333     0.931133333333     0.931133333333     0          
O2       O      0.239366666667     0.955333333333     0.927300000000     0          
C1       C      0.250000000000     0.962900000000     0.916666666667     0          
C2       C      0.250000000000     0.982066666667     0.916666666667     0          
C3       C      0.239033333333     0.991033333333     0.927633333333     0          
H1       H      0.231700000000     0.985066666667     0.934966666667     0          
Zn1      Zn     0.068866666667     0.735533333333     0.764466666667     0          
O2       O      0.072700000000     0.711333333333     0.760633333333     0          
C1       C      0.083333333333     0.703766666667     0.750000000000     0          
C2       C      0.083333333333     0.684600000000     0.750000000000     0          
C3       C      0.072366666667     0.675633333333     0.760966666667     0          
H1       H      0.065033333333     0.681600000000     0.768300000000     0          
Zn1      Zn     0.068866666667     0.931133333333     0.902200000000     0          
O2       O      0.072700000000     0.955333333333     0.906033333333     0          
C1       C      0.083333333333     0.962900000000     0.916666666667     0          
C2       C      0.083333333333     0.982066666667     0.916666666667     0          
C3       C      0.072366666667     0.991033333333     0.905700000000     0          
H1       H      0.065033333333     0.985066666667     0.898366666667     0          
Zn1      Zn     0.068866666667     0.735533333333     0.902200000000     0          
O2       O      0.044666666667     0.739366666667     0.906033333333     0          
C1       C      0.037100000000     0.750000000000     0.916666666667     0          
C2       C      0.017933333333     0.750000000000     0.916666666667     0          
C3       C      0.008966666667     0.739033333333     0.905700000000     0          
H1       H      0.014933333333     0.731700000000     0.898366666667     0          
Zn1      Zn     0.264466666667     0.735533333333     0.902200000000     0          
O2       O      0.260633333333     0.711333333333     0.906033333333     0          
C1       C      0.250000000000     0.703766666667     0.916666666667     0          
C2       C      0.250000000000     0.684600000000     0.916666666667     0          
C3       C      0.260966666667     0.675633333333     0.905700000000     0          
H1       H      0.268300000000     0.681600000000     0.898366666667     0          
Zn1      Zn     0.264466666667     0.931133333333     0.902200000000     0          
O2       O      0.288666666667     0.927300000000     0.906033333333     0          
C1       C      0.296233333333     0.916666666667     0.916666666667     0          
C2       C      0.315400000000     0.916666666667     0.916666666667     0          
C3       C      0.324366666667     0.927633333333     0.905700000000     0          
H1       H      0.318400000000     0.934966666667     0.898366666667     0          
Zn1      Zn     0.264466666667     0.931133333333     0.764466666667     0          
O2       O      0.260633333333     0.955333333333     0.760633333333     0          
C1       C      0.250000000000     0.962900000000     0.750000000000     0          
C2       C      0.250000000000     0.982066666667     0.750000000000     0          
C3       C      0.260966666667     0.991033333333     0.760966666667     0          
H1       H      0.268300000000     0.985066666667     0.768300000000     0          
Zn1      Zn     0.068866666667     0.931133333333     0.764466666667     0          
O2       O      0.044666666667     0.927300000000     0.760633333333     0          
C1       C      0.037100000000     0.916666666667     0.750000000000     0          
C2       C      0.017933333333     0.916666666667     0.750000000000     0          
C3       C      0.008966666667     0.927633333333     0.760966666667     0          
H1       H      0.014933333333     0.934966666667     0.768300000000     0          
Zn1      Zn     0.264466666667     0.735533333333     0.764466666667     0          
O2       O      0.288666666667     0.739366666667     0.760633333333     0          
C1       C      0.296233333333     0.750000000000     0.750000000000     0          
C2       C      0.315400000000     0.750000000000     0.750000000000     0          
C3       C      0.324366666667     0.739033333333     0.760966666667     0          
H1       H      0.318400000000     0.731700000000     0.768300000000     0          
O2       O      0.239366666667     0.927300000000     0.955333333333     0          
C3       C      0.239033333333     0.927633333333     0.991033333333     0          
H1       H      0.231700000000     0.934966666667     0.985066666667     0          
O2       O      0.072700000000     0.906033333333     0.955333333333     0          
C3       C      0.072366666667     0.905700000000     0.991033333333     0          
H1       H      0.065033333333     0.898366666667     0.985066666667     0          
O2       O      0.093966666667     0.739366666667     0.955333333333     0          
C3       C      0.094300000000     0.739033333333     0.991033333333     0          
H1       H      0.101633333333     0.731700000000     0.985066666667     0          
O2       O      0.260633333333     0.760633333333     0.955333333333     0          
C3       C      0.260966666667     0.760966666667     0.991033333333     0          
H1       H      0.268300000000     0.768300000000     0.985066666667     0          
O2       O      0.239366666667     0.739366666667     0.711333333333     0          
C3       C      0.239033333333     0.739033333333     0.675633333333     0          
H1       H      0.231700000000     0.731700000000     0.681600000000     0          
O2       O      0.260633333333     0.906033333333     0.711333333333     0          
C3       C      0.260966666667     0.905700000000     0.675633333333     0          
H1       H      0.268300000000     0.898366666667     0.681600000000     0          
O2       O      0.093966666667     0.927300000000     0.711333333333     0          
C3       C      0.094300000000     0.927633333333     0.675633333333     0          
H1       H      0.101633333333     0.934966666667     0.681600000000     0          
O2       O      0.072700000000     0.760633333333     0.711333333333     0          
C3       C      0.072366666667     0.760966666667     0.675633333333     0          
H1       H      0.065033333333     0.768300000000     0.681600000000     0          
O2       O      0.288666666667     0.906033333333     0.927300000000     0          
C3       C      0.324366666667     0.905700000000     0.927633333333     0          
H1       H      0.318400000000     0.898366666667     0.934966666667     0          
O2       O      0.093966666667     0.955333333333     0.927300000000     0          
C3       C      0.094300000000     0.991033333333     0.927633333333     0          
H1       H      0.101633333333     0.985066666667     0.934966666667     0          
O2       O      0.044666666667     0.760633333333     0.927300000000     0          
C3       C      0.008966666667     0.760966666667     0.927633333333     0          
H1       H      0.014933333333     0.768300000000     0.934966666667     0          
O2       O      0.239366666667     0.711333333333     0.927300000000     0          
C3       C      0.239033333333     0.675633333333     0.927633333333     0          
H1       H      0.231700000000     0.681600000000     0.934966666667     0          
O2       O      0.288666666667     0.760633333333     0.739366666667     0          
C3       C      0.324366666667     0.760966666667     0.739033333333     0          
H1       H      0.318400000000     0.768300000000     0.731700000000     0          
O2       O      0.239366666667     0.955333333333     0.739366666667     0          
C3       C      0.239033333333     0.991033333333     0.739033333333     0          
H1       H      0.231700000000     0.985066666667     0.731700000000     0          
O2       O      0.044666666667     0.906033333333     0.739366666667     0          
C3       C      0.008966666667     0.905700000000     0.739033333333     0          
H1       H      0.014933333333     0.898366666667     0.731700000000     0          
O2       O      0.093966666667     0.711333333333     0.739366666667     0          
C3       C      0.094300000000     0.675633333333     0.739033333333     0          
H1       H      0.101633333333     0.681600000000     0.731700000000     0          
O2       O      0.260633333333     0.955333333333     0.906033333333     0          
C3       C      0.260966666667     0.991033333333     0.905700000000     0          
H1       H      0.268300000000     0.985066666667     0.898366666667     0          
O2       O      0.260633333333     0.711333333333     0.760633333333     0          
C3       C      0.260966666667     0.675633333333     0.760966666667     0          
H1       H      0.268300000000     0.681600000000     0.768300000000     0          
O2       O      0.288666666667     0.927300000000     0.760633333333     0          
C3       C      0.324366666667     0.927633333333     0.760966666667     0          
H1       H      0.318400000000     0.934966666667     0.768300000000     0          
O2       O      0.072700000000     0.955333333333     0.760633333333     0          
C3       C      0.072366666667     0.991033333333     0.760966666667     0          
H1       H      0.065033333333     0.985066666667     0.768300000000     0          
O2       O      0.044666666667     0.739366666667     0.760633333333     0          
C3       C      0.008966666667     0.739033333333     0.760966666667     0          
H1       H      0.014933333333     0.731700000000     0.768300000000     0          
O2       O      0.072700000000     0.711333333333     0.906033333333     0          
C3       C      0.072366666667     0.675633333333     0.905700000000     0          
H1       H      0.065033333333     0.681600000000     0.898366666667     0          
O2       O      0.288666666667     0.739366666667     0.906033333333     0          
C3       C      0.324366666667     0.739033333333     0.905700000000     0          
H1       H      0.318400000000     0.731700000000     0.898366666667     0          
O2       O      0.044666666667     0.927300000000     0.906033333333     0          
C3       C      0.008966666667     0.927633333333     0.905700000000     0          
H1       H      0.014933333333     0.934966666667     0.898366666667     0          
Zn1      Zn     0.097800000000     0.902200000000     0.902200000000     0          
O2       O      0.093966666667     0.906033333333     0.878000000000     0          
C1       C      0.083333333333     0.916666666667     0.870433333333     0          
C2       C      0.083333333333     0.916666666667     0.851266666667     0          
C3       C      0.094300000000     0.905700000000     0.842300000000     0          
H1       H      0.101633333333     0.898366666667     0.848266666667     0          
O2       O      0.260633333333     0.927300000000     0.878000000000     0          
C1       C      0.250000000000     0.916666666667     0.870433333333     0          
C2       C      0.250000000000     0.916666666667     0.851266666667     0          
C3       C      0.260966666667     0.927633333333     0.842300000000     0          
H1       H      0.268300000000     0.934966666667     0.848266666667     0          
Zn1      Zn     0.235533333333     0.764466666667     0.902200000000     0          
O2       O      0.239366666667     0.760633333333     0.878000000000     0          
C1       C      0.250000000000     0.750000000000     0.870433333333     0          
C2       C      0.250000000000     0.750000000000     0.851266666667     0          
C3       C      0.239033333333     0.760966666667     0.842300000000     0          
H1       H      0.231700000000     0.768300000000     0.848266666667     0          
O2       O      0.072700000000     0.739366666667     0.878000000000     0          
C1       C      0.083333333333     0.750000000000     0.870433333333     0          
C2       C      0.083333333333     0.750000000000     0.851266666667     0          
C3       C      0.072366666667     0.739033333333     0.842300000000     0          
H1       H      0.065033333333     0.731700000000     0.848266666667     0          
Zn1      Zn     0.097800000000     0.764466666667     0.764466666667     0          
O2       O      0.093966666667     0.760633333333     0.788666666667     0          
C1       C      0.083333333333     0.750000000000     0.796233333333     0          
C2       C      0.083333333333     0.750000000000     0.815400000000     0          
C3       C      0.094300000000     0.760966666667     0.824366666667     0          
H1       H      0.101633333333     0.768300000000     0.818400000000     0          
O2       O      0.072700000000     0.927300000000     0.788666666667     0          
C1       C      0.083333333333     0.916666666667     0.796233333333     0          
C2       C      0.083333333333     0.916666666667     0.815400000000     0          
C3       C      0.072366666667     0.927633333333     0.824366666667     0          
H1       H      0.065033333333     0.934966666667     0.818400000000     0          
Zn1      Zn     0.235533333333     0.902200000000     0.764466666667     0          
O2       O      0.239366666667     0.906033333333     0.788666666667     0          
C1       C      0.250000000000     0.916666666667     0.796233333333     0          
C2       C      0.250000000000     0.916666666667     0.815400000000     0          
C3       C      0.239033333333     0.905700000000     0.824366666667     0          
H1       H      0.231700000000     0.898366666667     0.818400000000     0          
O2       O      0.260633333333     0.739366666667     0.788666666667     0          
C1       C      0.250000000000     0.750000000000     0.796233333333     0          
C2       C      0.250000000000     0.750000000000     0.815400000000     0          
C3       C      0.260966666667     0.739033333333     0.824366666667     0          
H1       H      0.268300000000     0.731700000000     0.818400000000     0          
Zn1      Zn     0.235533333333     0.902200000000     0.902200000000     0          
O2       O      0.239366666667     0.878000000000     0.906033333333     0          
C1       C      0.250000000000     0.870433333333     0.916666666667     0          
C2       C      0.250000000000     0.851266666667     0.916666666667     0          
C3       C      0.239033333333     0.842300000000     0.905700000000     0          
H1       H      0.231700000000     0.848266666667     0.898366666667     0          
Zn1      Zn     0.097800000000     0.764466666667     0.902200000000     0          
O2       O      0.093966666667     0.788666666667     0.906033333333     0          
C1       C      0.083333333333     0.796233333333     0.916666666667     0          
C2       C      0.083333333333     0.815400000000     0.916666666667     0          
C3       C      0.094300000000     0.824366666667     0.905700000000     0          
H1       H      0.101633333333     0.818400000000     0.898366666667     0          
Zn1      Zn     0.097800000000     0.902200000000     0.764466666667     0          
O2       O      0.093966666667     0.878000000000     0.760633333333     0          
C1       C      0.083333333333     0.870433333333     0.750000000000     0          
C2       C      0.083333333333     0.851266666667     0.750000000000     0          
C3       C      0.094300000000     0.842300000000     0.760966666667     0          
H1       H      0.101633333333     0.848266666667     0.768300000000     0          
Zn1      Zn     0.235533333333     0.764466666667     0.764466666667     0          
O2       O      0.239366666667     0.788666666667     0.760633333333     0          
C1       C      0.250000000000     0.796233333333     0.750000000000     0          
C2       C      0.250000000000     0.815400000000     0.750000000000     0          
C3       C      0.239033333333     0.824366666667     0.760966666667     0          
H1       H      0.231700000000     0.818400000000     0.768300000000     0          
O2       O      0.072700000000     0.878000000000     0.927300000000     0          
C1       C      0.083333333333     0.870433333333     0.916666666667     0          
C2       C      0.083333333333     0.851266666667     0.916666666667     0          
C3       C      0.072366666667     0.842300000000     0.927633333333     0          
H1       H      0.065033333333     0.848266666667     0.934966666667     0          
O2       O      0.072700000000     0.788666666667     0.739366666667     0          
C1       C      0.083333333333     0.796233333333     0.750000000000     0          
C2       C      0.083333333333     0.815400000000     0.750000000000     0          
C3       C      0.072366666667     0.824366666667     0.739033333333     0          
H1       H      0.065033333333     0.818400000000     0.731700000000     0          
O2       O      0.260633333333     0.878000000000     0.739366666667     0          
C1       C      0.250000000000     0.870433333333     0.750000000000     0          
C2       C      0.250000000000     0.851266666667     0.750000000000     0          
C3       C      0.260966666667     0.842300000000     0.739033333333     0          
H1       H      0.268300000000     0.848266666667     0.731700000000     0          
O2       O      0.260633333333     0.788666666667     0.927300000000     0          
C1       C      0.250000000000     0.796233333333     0.916666666667     0          
C2       C      0.250000000000     0.815400000000     0.916666666667     0          
C3       C      0.260966666667     0.824366666667     0.927633333333     0          
H1       H      0.268300000000     0.818400000000     0.934966666667     0          
O2       O      0.239366666667     0.760633333333     0.788666666667     0          
C3       C      0.239033333333     0.760966666667     0.824366666667     0          
H1       H      0.231700000000     0.768300000000     0.818400000000     0          
O2       O      0.072700000000     0.739366666667     0.788666666667     0          
C3       C      0.072366666667     0.739033333333     0.824366666667     0          
H1       H      0.065033333333     0.731700000000     0.818400000000     0          
O2       O      0.093966666667     0.906033333333     0.788666666667     0          
C3       C      0.094300000000     0.905700000000     0.824366666667     0          
H1       H      0.101633333333     0.898366666667     0.818400000000     0          
O2       O      0.260633333333     0.927300000000     0.788666666667     0          
C3       C      0.260966666667     0.927633333333     0.824366666667     0          
H1       H      0.268300000000     0.934966666667     0.818400000000     0          
O2       O      0.239366666667     0.906033333333     0.878000000000     0          
C3       C      0.239033333333     0.905700000000     0.842300000000     0          
H1       H      0.231700000000     0.898366666667     0.848266666667     0          
O2       O      0.260633333333     0.739366666667     0.878000000000     0          
C3       C      0.260966666667     0.739033333333     0.842300000000     0          
H1       H      0.268300000000     0.731700000000     0.848266666667     0          
O2       O      0.093966666667     0.760633333333     0.878000000000     0          
C3       C      0.094300000000     0.760966666667     0.842300000000     0          
H1       H      0.101633333333     0.768300000000     0.848266666667     0          
O2       O      0.072700000000     0.927300000000     0.878000000000     0          
C3       C      0.072366666667     0.927633333333     0.842300000000     0          
H1       H      0.065033333333     0.934966666667     0.848266666667     0          
O2       O      0.093966666667     0.788666666667     0.760633333333     0          
C3       C      0.094300000000     0.824366666667     0.760966666667     0          
H1       H      0.101633333333     0.818400000000     0.768300000000     0          
O2       O      0.239366666667     0.878000000000     0.760633333333     0          
C3       C      0.239033333333     0.842300000000     0.760966666667     0          
H1       H      0.231700000000     0.848266666667     0.768300000000     0          
O2       O      0.239366666667     0.788666666667     0.906033333333     0          
C3       C      0.239033333333     0.824366666667     0.905700000000     0          
H1       H      0.231700000000     0.818400000000     0.898366666667     0          
O2       O      0.093966666667     0.878000000000     0.906033333333     0          
C3       C      0.094300000000     0.842300000000     0.905700000000     0          
H1       H      0.101633333333     0.848266666667     0.898366666667     0          
O2       O      0.260633333333     0.788666666667     0.739366666667     0          
C3       C      0.260966666667     0.824366666667     0.739033333333     0          
H1       H      0.268300000000     0.818400000000     0.731700000000     0          
O2       O      0.260633333333     0.878000000000     0.927300000000     0          
C3       C      0.260966666667     0.842300000000     0.927633333333     0          
H1       H      0.268300000000     0.848266666667     0.934966666667     0          
O2       O      0.072700000000     0.788666666667     0.927300000000     0          
C3       C      0.072366666667     0.824366666667     0.927633333333     0          
H1       H      0.065033333333     0.818400000000     0.934966666667     0          
O2       O      0.072700000000     0.878000000000     0.739366666667     0          
C3       C      0.072366666667     0.842300000000     0.739033333333     0          
H1       H      0.065033333333     0.848266666667     0.731700000000     0          
O2       O      0.211333333333     0.760633333333     0.906033333333     0          
C1       C      0.203766666667     0.750000000000     0.916666666667     0          
C2       C      0.184600000000     0.750000000000     0.916666666667     0          
C3       C      0.175633333333     0.760966666667     0.905700000000     0          
H1       H      0.181600000000     0.768300000000     0.898366666667     0          
O2       O      0.122000000000     0.906033333333     0.906033333333     0          
C1       C      0.129566666667     0.916666666667     0.916666666667     0          
C2       C      0.148733333333     0.916666666667     0.916666666667     0          
C3       C      0.157700000000     0.905700000000     0.905700000000     0          
H1       H      0.151733333333     0.898366666667     0.898366666667     0          
O2       O      0.211333333333     0.906033333333     0.760633333333     0          
C1       C      0.203766666667     0.916666666667     0.750000000000     0          
C2       C      0.184600000000     0.916666666667     0.750000000000     0          
C3       C      0.175633333333     0.905700000000     0.760966666667     0          
H1       H      0.181600000000     0.898366666667     0.768300000000     0          
O2       O      0.122000000000     0.760633333333     0.760633333333     0          
C1       C      0.129566666667     0.750000000000     0.750000000000     0          
C2       C      0.148733333333     0.750000000000     0.750000000000     0          
C3       C      0.157700000000     0.760966666667     0.760966666667     0          
H1       H      0.151733333333     0.768300000000     0.768300000000     0          
O2       O      0.211333333333     0.739366666667     0.739366666667     0          
C1       C      0.203766666667     0.750000000000     0.750000000000     0          
C2       C      0.184600000000     0.750000000000     0.750000000000     0          
C3       C      0.175633333333     0.739033333333     0.739033333333     0          
H1       H      0.181600000000     0.731700000000     0.731700000000     0          
O2       O      0.122000000000     0.927300000000     0.739366666667     0          
C1       C      0.129566666667     0.916666666667     0.750000000000     0          
C2       C      0.148733333333     0.916666666667     0.750000000000     0          
C3       C      0.157700000000     0.927633333333     0.739033333333     0          
H1       H      0.151733333333     0.934966666667     0.731700000000     0          
O2       O      0.211333333333     0.927300000000     0.927300000000     0          
C1       C      0.203766666667     0.916666666667     0.916666666667     0          
C2       C      0.184600000000     0.916666666667     0.916666666667     0          
C3       C      0.175633333333     0.927633333333     0.927633333333     0          
H1       H      0.181600000000     0.934966666667     0.934966666667     0          
O2       O      0.122000000000     0.739366666667     0.927300000000     0          
C1       C      0.129566666667     0.750000000000     0.916666666667     0          
C2       C      0.148733333333     0.750000000000     0.916666666667     0          
C3       C      0.157700000000     0.739033333333     0.927633333333     0          
H1       H      0.151733333333     0.731700000000     0.934966666667     0          
O2       O      0.122000000000     0.906033333333     0.760633333333     0          
C3       C      0.157700000000     0.905700000000     0.760966666667     0          
H1       H      0.151733333333     0.898366666667     0.768300000000     0          
O2       O      0.211333333333     0.760633333333     0.760633333333     0          
C3       C      0.175633333333     0.760966666667     0.760966666667     0          
H1       H      0.181600000000     0.768300000000     0.768300000000     0          
O2       O      0.122000000000     0.760633333333     0.906033333333     0          
C3       C      0.157700000000     0.760966666667     0.905700000000     0          
H1       H      0.151733333333     0.768300000000     0.898366666667     0          
O2       O      0.211333333333     0.906033333333     0.906033333333     0          
C3       C      0.175633333333     0.905700000000     0.905700000000     0          
H1       H      0.181600000000     0.898366666667     0.898366666667     0          
O2       O      0.122000000000     0.927300000000     0.927300000000     0          
C3       C      0.157700000000     0.927633333333     0.927633333333     0          
H1       H      0.151733333333     0.934966666667     0.934966666667     0          
O2       O      0.211333333333     0.739366666667     0.927300000000     0          
C3       C      0.175633333333     0.739033333333     0.927633333333     0          
H1       H      0.181600000000     0.731700000000     0.934966666667     0          
O2       O      0.122000000000     0.739366666667     0.739366666667     0          
C3       C      0.157700000000     0.739033333333     0.739033333333     0          
H1       H      0.151733333333     0.731700000000     0.731700000000     0          
O2       O      0.211333333333     0.927300000000     0.739366666667     0          
C3       C      0.175633333333     0.927633333333     0.739033333333     0          
H1       H      0.181600000000     0.934966666667     0.731700000000     0          
Zn1      Zn     0.431133333333     0.068866666667     0.068866666667     0          
O1       O      0.416666666667     0.083333333333     0.083333333333     0          
O2       O      0.427300000000     0.072700000000     0.044666666667     0          
C1       C      0.416666666667     0.083333333333     0.037100000000     0          
C2       C      0.416666666667     0.083333333333     0.017933333333     0          
C3       C      0.427633333333     0.072366666667     0.008966666667     0          
H1       H      0.434966666667     0.065033333333     0.014933333333     0          
Zn1      Zn     0.597800000000     0.097800000000     0.068866666667     0          
O1       O      0.583333333333     0.083333333333     0.083333333333     0          
O2       O      0.593966666667     0.093966666667     0.044666666667     0          
C1       C      0.583333333333     0.083333333333     0.037100000000     0          
C2       C      0.583333333333     0.083333333333     0.017933333333     0          
C3       C      0.594300000000     0.094300000000     0.008966666667     0          
H1       H      0.601633333333     0.101633333333     0.014933333333     0          
Zn1      Zn     0.568866666667     0.264466666667     0.068866666667     0          
O1       O      0.583333333333     0.250000000000     0.083333333333     0          
O2       O      0.572700000000     0.260633333333     0.044666666667     0          
C1       C      0.583333333333     0.250000000000     0.037100000000     0          
C2       C      0.583333333333     0.250000000000     0.017933333333     0          
C3       C      0.572366666667     0.260966666667     0.008966666667     0          
H1       H      0.565033333333     0.268300000000     0.014933333333     0          
Zn1      Zn     0.402200000000     0.235533333333     0.068866666667     0          
O1       O      0.416666666667     0.250000000000     0.083333333333     0          
O2       O      0.406033333333     0.239366666667     0.044666666667     0          
C1       C      0.416666666667     0.250000000000     0.037100000000     0          
C2       C      0.416666666667     0.250000000000     0.017933333333     0          
C3       C      0.405700000000     0.239033333333     0.008966666667     0          
H1       H      0.398366666667     0.231700000000     0.014933333333     0          
Zn1      Zn     0.431133333333     0.264466666667     0.264466666667     0          
O1       O      0.416666666667     0.250000000000     0.250000000000     0          
O2       O      0.427300000000     0.260633333333     0.288666666667     0          
C1       C      0.416666666667     0.250000000000     0.296233333333     0          
C2       C      0.416666666667     0.250000000000     0.315400000000     0          
C3       C      0.427633333333     0.260966666667     0.324366666667     0          
H1       H      0.434966666667     0.268300000000     0.318400000000     0          
Zn1      Zn     0.402200000000     0.097800000000     0.264466666667     0          
O1       O      0.416666666667     0.083333333333     0.250000000000     0          
O2       O      0.406033333333     0.093966666667     0.288666666667     0          
C1       C      0.416666666667     0.083333333333     0.296233333333     0          
C2       C      0.416666666667     0.083333333333     0.315400000000     0          
C3       C      0.405700000000     0.094300000000     0.324366666667     0          
H1       H      0.398366666667     0.101633333333     0.318400000000     0          
Zn1      Zn     0.568866666667     0.068866666667     0.264466666667     0          
O1       O      0.583333333333     0.083333333333     0.250000000000     0          
O2       O      0.572700000000     0.072700000000     0.288666666667     0          
C1       C      0.583333333333     0.083333333333     0.296233333333     0          
C2       C      0.583333333333     0.083333333333     0.315400000000     0          
C3       C      0.572366666667     0.072366666667     0.324366666667     0          
H1       H      0.565033333333     0.065033333333     0.318400000000     0          
Zn1      Zn     0.597800000000     0.235533333333     0.264466666667     0          
O1       O      0.583333333333     0.250000000000     0.250000000000     0          
O2       O      0.593966666667     0.239366666667     0.288666666667     0          
C1       C      0.583333333333     0.250000000000     0.296233333333     0          
C2       C      0.583333333333     0.250000000000     0.315400000000     0          
C3       C      0.594300000000     0.239033333333     0.324366666667     0          
H1       H      0.601633333333     0.231700000000     0.318400000000     0          
Zn1      Zn     0.402200000000     0.097800000000     0.068866666667     0          
O2       O      0.378000000000     0.093966666667     0.072700000000     0          
C1       C      0.370433333333     0.083333333333     0.083333333333     0          
C2       C      0.351266666667     0.083333333333     0.083333333333     0          
C3       C      0.342300000000     0.094300000000     0.072366666667     0          
H1       H      0.348266666667     0.101633333333     0.065033333333     0          
Zn1      Zn     0.568866666667     0.068866666667     0.068866666667     0          
O2       O      0.572700000000     0.044666666667     0.072700000000     0          
C1       C      0.583333333333     0.037100000000     0.083333333333     0          
C2       C      0.583333333333     0.017933333333     0.083333333333     0          
C3       C      0.572366666667     0.008966666667     0.072366666667     0          
H1       H      0.565033333333     0.014933333333     0.065033333333     0          
Zn1      Zn     0.597800000000     0.235533333333     0.068866666667     0          
O2       O      0.622000000000     0.239366666667     0.072700000000     0          
C1       C      0.629566666667     0.250000000000     0.083333333333     0          
C2       C      0.648733333333     0.250000000000     0.083333333333     0          
C3       C      0.657700000000     0.239033333333     0.072366666667     0          
H1       H      0.651733333333     0.231700000000     0.065033333333     0          
Zn1      Zn     0.431133333333     0.264466666667     0.068866666667     0          
O2       O      0.427300000000     0.288666666667     0.072700000000     0          
C1       C      0.416666666667     0.296233333333     0.083333333333     0          
C2       C      0.416666666667     0.315400000000     0.083333333333     0          
C3       C      0.427633333333     0.324366666667     0.072366666667     0          
H1       H      0.434966666667     0.318400000000     0.065033333333     0          
Zn1      Zn     0.402200000000     0.235533333333     0.264466666667     0          
O2       O      0.378000000000     0.239366666667     0.260633333333     0          
C1       C      0.370433333333     0.250000000000     0.250000000000     0          
C2       C      0.351266666667     0.250000000000     0.250000000000     0          
C3       C      0.342300000000     0.239033333333     0.260966666667     0          
H1       H      0.348266666667     0.231700000000     0.268300000000     0          
Zn1      Zn     0.431133333333     0.068866666667     0.264466666667     0          
O2       O      0.427300000000     0.044666666667     0.260633333333     0          
C1       C      0.416666666667     0.037100000000     0.250000000000     0          
C2       C      0.416666666667     0.017933333333     0.250000000000     0          
C3       C      0.427633333333     0.008966666667     0.260966666667     0          
H1       H      0.434966666667     0.014933333333     0.268300000000     0          
Zn1      Zn     0.597800000000     0.097800000000     0.264466666667     0          
O2       O      0.622000000000     0.093966666667     0.260633333333     0          
C1       C      0.629566666667     0.083333333333     0.250000000000     0          
C2       C      0.648733333333     0.083333333333     0.250000000000     0          
C3       C      0.657700000000     0.094300000000     0.260966666667     0          
H1       H      0.651733333333     0.101633333333     0.268300000000     0          
Zn1      Zn     0.568866666667     0.264466666667     0.264466666667     0          
O2       O      0.572700000000     0.288666666667     0.260633333333     0          
C1       C      0.583333333333     0.296233333333     0.250000000000     0          
C2       C      0.583333333333     0.315400000000     0.250000000000     0          
C3       C      0.572366666667     0.324366666667     0.260966666667     0          
H1       H      0.565033333333     0.318400000000     0.268300000000     0          
Zn1      Zn     0.402200000000     0.068866666667     0.097800000000     0          
O2       O      0.406033333333     0.044666666667     0.093966666667     0          
C1       C      0.416666666667     0.037100000000     0.083333333333     0          
C2       C      0.416666666667     0.017933333333     0.083333333333     0          
C3       C      0.405700000000     0.008966666667     0.094300000000     0          
H1       H      0.398366666667     0.014933333333     0.101633333333     0          
Zn1      Zn     0.402200000000     0.264466666667     0.235533333333     0          
O2       O      0.406033333333     0.288666666667     0.239366666667     0          
C1       C      0.416666666667     0.296233333333     0.250000000000     0          
C2       C      0.416666666667     0.315400000000     0.250000000000     0          
C3       C      0.405700000000     0.324366666667     0.239033333333     0          
H1       H      0.398366666667     0.318400000000     0.231700000000     0          
Zn1      Zn     0.402200000000     0.068866666667     0.235533333333     0          
O2       O      0.378000000000     0.072700000000     0.239366666667     0          
C1       C      0.370433333333     0.083333333333     0.250000000000     0          
C2       C      0.351266666667     0.083333333333     0.250000000000     0          
C3       C      0.342300000000     0.072366666667     0.239033333333     0          
H1       H      0.348266666667     0.065033333333     0.231700000000     0          
Zn1      Zn     0.597800000000     0.068866666667     0.235533333333     0          
O2       O      0.593966666667     0.044666666667     0.239366666667     0          
C1       C      0.583333333333     0.037100000000     0.250000000000     0          
C2       C      0.583333333333     0.017933333333     0.250000000000     0          
C3       C      0.594300000000     0.008966666667     0.239033333333     0          
H1       H      0.601633333333     0.014933333333     0.231700000000     0          
Zn1      Zn     0.597800000000     0.264466666667     0.235533333333     0          
O2       O      0.622000000000     0.260633333333     0.239366666667     0          
C1       C      0.629566666667     0.250000000000     0.250000000000     0          
C2       C      0.648733333333     0.250000000000     0.250000000000     0          
C3       C      0.657700000000     0.260966666667     0.239033333333     0          
H1       H      0.651733333333     0.268300000000     0.231700000000     0          
Zn1      Zn     0.597800000000     0.264466666667     0.097800000000     0          
O2       O      0.593966666667     0.288666666667     0.093966666667     0          
C1       C      0.583333333333     0.296233333333     0.083333333333     0          
C2       C      0.583333333333     0.315400000000     0.083333333333     0          
C3       C      0.594300000000     0.324366666667     0.094300000000     0          
H1       H      0.601633333333     0.318400000000     0.101633333333     0          
Zn1      Zn     0.402200000000     0.264466666667     0.097800000000     0          
O2       O      0.378000000000     0.260633333333     0.093966666667     0          
C1       C      0.370433333333     0.250000000000     0.083333333333     0          
C2       C      0.351266666667     0.250000000000     0.083333333333     0          
C3       C      0.342300000000     0.260966666667     0.094300000000     0          
H1       H      0.348266666667     0.268300000000     0.101633333333     0          
Zn1      Zn     0.597800000000     0.068866666667     0.097800000000     0          
O2       O      0.622000000000     0.072700000000     0.093966666667     0          
C1       C      0.629566666667     0.083333333333     0.083333333333     0          
C2       C      0.648733333333     0.083333333333     0.083333333333     0          
C3       C      0.657700000000     0.072366666667     0.094300000000     0          
H1       H      0.651733333333     0.065033333333     0.101633333333     0          
O2       O      0.572700000000     0.260633333333     0.288666666667     0          
C3       C      0.572366666667     0.260966666667     0.324366666667     0          
H1       H      0.565033333333     0.268300000000     0.318400000000     0          
O2       O      0.406033333333     0.239366666667     0.288666666667     0          
C3       C      0.405700000000     0.239033333333     0.324366666667     0          
H1       H      0.398366666667     0.231700000000     0.318400000000     0          
O2       O      0.427300000000     0.072700000000     0.288666666667     0          
C3       C      0.427633333333     0.072366666667     0.324366666667     0          
H1       H      0.434966666667     0.065033333333     0.318400000000     0          
O2       O      0.593966666667     0.093966666667     0.288666666667     0          
C3       C      0.594300000000     0.094300000000     0.324366666667     0          
H1       H      0.601633333333     0.101633333333     0.318400000000     0          
O2       O      0.572700000000     0.072700000000     0.044666666667     0          
C3       C      0.572366666667     0.072366666667     0.008966666667     0          
H1       H      0.565033333333     0.065033333333     0.014933333333     0          
O2       O      0.593966666667     0.239366666667     0.044666666667     0          
C3       C      0.594300000000     0.239033333333     0.008966666667     0          
H1       H      0.601633333333     0.231700000000     0.014933333333     0          
O2       O      0.427300000000     0.260633333333     0.044666666667     0          
C3       C      0.427633333333     0.260966666667     0.008966666667     0          
H1       H      0.434966666667     0.268300000000     0.014933333333     0          
O2       O      0.406033333333     0.093966666667     0.044666666667     0          
C3       C      0.405700000000     0.094300000000     0.008966666667     0          
H1       H      0.398366666667     0.101633333333     0.014933333333     0          
O2       O      0.622000000000     0.239366666667     0.260633333333     0          
C3       C      0.657700000000     0.239033333333     0.260966666667     0          
H1       H      0.651733333333     0.231700000000     0.268300000000     0          
O2       O      0.427300000000     0.288666666667     0.260633333333     0          
C3       C      0.427633333333     0.324366666667     0.260966666667     0          
H1       H      0.434966666667     0.318400000000     0.268300000000     0          
O2       O      0.378000000000     0.093966666667     0.260633333333     0          
C3       C      0.342300000000     0.094300000000     0.260966666667     0          
H1       H      0.348266666667     0.101633333333     0.268300000000     0          
O2       O      0.572700000000     0.044666666667     0.260633333333     0          
C3       C      0.572366666667     0.008966666667     0.260966666667     0          
H1       H      0.565033333333     0.014933333333     0.268300000000     0          
O2       O      0.622000000000     0.093966666667     0.072700000000     0          
C3       C      0.657700000000     0.094300000000     0.072366666667     0          
H1       H      0.651733333333     0.101633333333     0.065033333333     0          
O2       O      0.572700000000     0.288666666667     0.072700000000     0          
C3       C      0.572366666667     0.324366666667     0.072366666667     0          
H1       H      0.565033333333     0.318400000000     0.065033333333     0          
O2       O      0.378000000000     0.239366666667     0.072700000000     0          
C3       C      0.342300000000     0.239033333333     0.072366666667     0          
H1       H      0.348266666667     0.231700000000     0.065033333333     0          
O2       O      0.427300000000     0.044666666667     0.072700000000     0          
C3       C      0.427633333333     0.008966666667     0.072366666667     0          
H1       H      0.434966666667     0.014933333333     0.065033333333     0          
O2       O      0.593966666667     0.288666666667     0.239366666667     0          
C3       C      0.594300000000     0.324366666667     0.239033333333     0          
H1       H      0.601633333333     0.318400000000     0.231700000000     0          
O2       O      0.593966666667     0.044666666667     0.093966666667     0          
C3       C      0.594300000000     0.008966666667     0.094300000000     0          
H1       H      0.601633333333     0.014933333333     0.101633333333     0          
O2       O      0.622000000000     0.260633333333     0.093966666667     0          
C3       C      0.657700000000     0.260966666667     0.094300000000     0          
H1       H      0.651733333333     0.268300000000     0.101633333333     0          
O2       O      0.406033333333     0.288666666667     0.093966666667     0          
C3       C      0.405700000000     0.324366666667     0.094300000000     0          
H1       H      0.398366666667     0.318400000000     0.101633333333     0          
O2       O      0.378000000000     0.072700000000     0.093966666667     0          
C3       C      0.342300000000     0.072366666667     0.094300000000     0          
H1       H      0.348266666667     0.065033333333     0.101633333333     0          
O2       O      0.406033333333     0.044666666667     0.239366666667     0          
C3       C      0.405700000000     0.008966666667     0.239033333333     0          
H1       H      0.398366666667     0.014933333333     0.231700000000     0          
O2       O      0.622000000000     0.072700000000     0.239366666667     0          
C3       C      0.657700000000     0.072366666667     0.239033333333     0          
H1       H      0.651733333333     0.065033333333     0.231700000000     0          
O2       O      0.378000000000     0.260633333333     0.239366666667     0          
C3       C      0.342300000000     0.260966666667     0.239033333333     0          
H1       H      0.348266666667     0.268300000000     0.231700000000     0          
Zn1      Zn     0.431133333333     0.235533333333     0.235533333333     0          
O2       O      0.427300000000     0.239366666667     0.211333333333     0          
C1       C      0.416666666667     0.250000000000     0.203766666667     0          
C2       C      0.416666666667     0.250000000000     0.184600000000     0          
C3       C      0.427633333333     0.239033333333     0.175633333333     0          
H1       H      0.434966666667     0.231700000000     0.181600000000     0          
O2       O      0.593966666667     0.260633333333     0.211333333333     0          
C1       C      0.583333333333     0.250000000000     0.203766666667     0          
C2       C      0.583333333333     0.250000000000     0.184600000000     0          
C3       C      0.594300000000     0.260966666667     0.175633333333     0          
H1       H      0.601633333333     0.268300000000     0.181600000000     0          
Zn1      Zn     0.568866666667     0.097800000000     0.235533333333     0          
O2       O      0.572700000000     0.093966666667     0.211333333333     0          
C1       C      0.583333333333     0.083333333333     0.203766666667     0          
C2       C      0.583333333333     0.083333333333     0.184600000000     0          
C3       C      0.572366666667     0.094300000000     0.175633333333     0          
H1       H      0.565033333333     0.101633333333     0.181600000000     0          
O2       O      0.406033333333     0.072700000000     0.211333333333     0          
C1       C      0.416666666667     0.083333333333     0.203766666667     0          
C2       C      0.416666666667     0.083333333333     0.184600000000     0          
C3       C      0.405700000000     0.072366666667     0.175633333333     0          
H1       H      0.398366666667     0.065033333333     0.181600000000     0          
Zn1      Zn     0.431133333333     0.097800000000     0.097800000000     0          
O2       O      0.427300000000     0.093966666667     0.122000000000     0          
C1       C      0.416666666667     0.083333333333     0.129566666667     0          
C2       C      0.416666666667     0.083333333333     0.148733333333     0          
C3       C      0.427633333333     0.094300000000     0.157700000000     0          
H1       H      0.434966666667     0.101633333333     0.151733333333     0          
O2       O      0.406033333333     0.260633333333     0.122000000000     0          
C1       C      0.416666666667     0.250000000000     0.129566666667     0          
C2       C      0.416666666667     0.250000000000     0.148733333333     0          
C3       C      0.405700000000     0.260966666667     0.157700000000     0          
H1       H      0.398366666667     0.268300000000     0.151733333333     0          
Zn1      Zn     0.568866666667     0.235533333333     0.097800000000     0          
O2       O      0.572700000000     0.239366666667     0.122000000000     0          
C1       C      0.583333333333     0.250000000000     0.129566666667     0          
C2       C      0.583333333333     0.250000000000     0.148733333333     0          
C3       C      0.572366666667     0.239033333333     0.157700000000     0          
H1       H      0.565033333333     0.231700000000     0.151733333333     0          
O2       O      0.593966666667     0.072700000000     0.122000000000     0          
C1       C      0.583333333333     0.083333333333     0.129566666667     0          
C2       C      0.583333333333     0.083333333333     0.148733333333     0          
C3       C      0.594300000000     0.072366666667     0.157700000000     0          
H1       H      0.601633333333     0.065033333333     0.151733333333     0          
Zn1      Zn     0.568866666667     0.235533333333     0.235533333333     0          
O2       O      0.572700000000     0.211333333333     0.239366666667     0          
C1       C      0.583333333333     0.203766666667     0.250000000000     0          
C2       C      0.583333333333     0.184600000000     0.250000000000     0          
C3       C      0.572366666667     0.175633333333     0.239033333333     0          
H1       H      0.565033333333     0.181600000000     0.231700000000     0          
Zn1      Zn     0.431133333333     0.097800000000     0.235533333333     0          
O2       O      0.427300000000     0.122000000000     0.239366666667     0          
C1       C      0.416666666667     0.129566666667     0.250000000000     0          
C2       C      0.416666666667     0.148733333333     0.250000000000     0          
C3       C      0.427633333333     0.157700000000     0.239033333333     0          
H1       H      0.434966666667     0.151733333333     0.231700000000     0          
Zn1      Zn     0.431133333333     0.235533333333     0.097800000000     0          
O2       O      0.427300000000     0.211333333333     0.093966666667     0          
C1       C      0.416666666667     0.203766666667     0.083333333333     0          
C2       C      0.416666666667     0.184600000000     0.083333333333     0          
C3       C      0.427633333333     0.175633333333     0.094300000000     0          
H1       H      0.434966666667     0.181600000000     0.101633333333     0          
Zn1      Zn     0.568866666667     0.097800000000     0.097800000000     0          
O2       O      0.572700000000     0.122000000000     0.093966666667     0          
C1       C      0.583333333333     0.129566666667     0.083333333333     0          
C2       C      0.583333333333     0.148733333333     0.083333333333     0          
C3       C      0.572366666667     0.157700000000     0.094300000000     0          
H1       H      0.565033333333     0.151733333333     0.101633333333     0          
O2       O      0.406033333333     0.211333333333     0.260633333333     0          
C1       C      0.416666666667     0.203766666667     0.250000000000     0          
C2       C      0.416666666667     0.184600000000     0.250000000000     0          
C3       C      0.405700000000     0.175633333333     0.260966666667     0          
H1       H      0.398366666667     0.181600000000     0.268300000000     0          
O2       O      0.406033333333     0.122000000000     0.072700000000     0          
C1       C      0.416666666667     0.129566666667     0.083333333333     0          
C2       C      0.416666666667     0.148733333333     0.083333333333     0          
C3       C      0.405700000000     0.157700000000     0.072366666667     0          
H1       H      0.398366666667     0.151733333333     0.065033333333     0          
O2       O      0.593966666667     0.211333333333     0.072700000000     0          
C1       C      0.583333333333     0.203766666667     0.083333333333     0          
C2       C      0.583333333333     0.184600000000     0.083333333333     0          
C3       C      0.594300000000     0.175633333333     0.072366666667     0          
H1       H      0.601633333333     0.181600000000     0.065033333333     0          
O2       O      0.593966666667     0.122000000000     0.260633333333     0          
C1       C      0.583333333333     0.129566666667     0.250000000000     0          
C2       C      0.583333333333     0.148733333333     0.250000000000     0          
C3       C      0.594300000000     0.157700000000     0.260966666667     0          
H1       H      0.601633333333     0.151733333333     0.268300000000     0          
O2       O      0.572700000000     0.093966666667     0.122000000000     0          
C3       C      0.572366666667     0.094300000000     0.157700000000     0          
H1       H      0.565033333333     0.101633333333     0.151733333333     0          
O2       O      0.406033333333     0.072700000000     0.122000000000     0          
C3       C      0.405700000000     0.072366666667     0.157700000000     0          
H1       H      0.398366666667     0.065033333333     0.151733333333     0          
O2       O      0.427300000000     0.239366666667     0.122000000000     0          
C3       C      0.427633333333     0.239033333333     0.157700000000     0          
H1       H      0.434966666667     0.231700000000     0.151733333333     0          
O2       O      0.593966666667     0.260633333333     0.122000000000     0          
C3       C      0.594300000000     0.260966666667     0.157700000000     0          
H1       H      0.601633333333     0.268300000000     0.151733333333     0          
O2       O      0.572700000000     0.239366666667     0.211333333333     0          
C3       C      0.572366666667     0.239033333333     0.175633333333     0          
H1       H      0.565033333333     0.231700000000     0.181600000000     0          
O2       O      0.593966666667     0.072700000000     0.211333333333     0          
C3       C      0.594300000000     0.072366666667     0.175633333333     0          
H1       H      0.601633333333     0.065033333333     0.181600000000     0          
O2       O      0.427300000000     0.093966666667     0.211333333333     0          
C3       C      0.427633333333     0.094300000000     0.175633333333     0          
H1       H      0.434966666667     0.101633333333     0.181600000000     0          
O2       O      0.406033333333     0.260633333333     0.211333333333     0          
C3       C      0.405700000000     0.260966666667     0.175633333333     0          
H1       H      0.398366666667     0.268300000000     0.181600000000     0          
O2       O      0.427300000000     0.122000000000     0.093966666667     0          
C3       C      0.427633333333     0.157700000000     0.094300000000     0          
H1       H      0.434966666667     0.151733333333     0.101633333333     0          
O2       O      0.572700000000     0.211333333333     0.093966666667     0          
C3       C      0.572366666667     0.175633333333     0.094300000000     0          
H1       H      0.565033333333     0.181600000000     0.101633333333     0          
O2       O      0.572700000000     0.122000000000     0.239366666667     0          
C3       C      0.572366666667     0.157700000000     0.239033333333     0          
H1       H      0.565033333333     0.151733333333     0.231700000000     0          
O2       O      0.427300000000     0.211333333333     0.239366666667     0          
C3       C      0.427633333333     0.175633333333     0.239033333333     0          
H1       H      0.434966666667     0.181600000000     0.231700000000     0          
O2       O      0.593966666667     0.122000000000     0.072700000000     0          
C3       C      0.594300000000     0.157700000000     0.072366666667     0          
H1       H      0.601633333333     0.151733333333     0.065033333333     0          
O2       O      0.593966666667     0.211333333333     0.260633333333     0          
C3       C      0.594300000000     0.175633333333     0.260966666667     0          
H1       H      0.601633333333     0.181600000000     0.268300000000     0          
O2       O      0.406033333333     0.122000000000     0.260633333333     0          
C3       C      0.405700000000     0.157700000000     0.260966666667     0          
H1       H      0.398366666667     0.151733333333     0.268300000000     0          
O2       O      0.406033333333     0.211333333333     0.072700000000     0          
C3       C      0.405700000000     0.175633333333     0.072366666667     0          
H1       H      0.398366666667     0.181600000000     0.065033333333     0          
O2       O      0.544666666667     0.093966666667     0.239366666667     0          
C1       C      0.537100000000     0.083333333333     0.250000000000     0          
C2       C      0.517933333333     0.083333333333     0.250000000000     0          
C3       C      0.508966666667     0.094300000000     0.239033333333     0          
H1       H      0.514933333333     0.101633333333     0.231700000000     0          
O2       O      0.455333333333     0.239366666667     0.239366666667     0          
C1       C      0.462900000000     0.250000000000     0.250000000000     0          
C2       C      0.482066666667     0.250000000000     0.250000000000     0          
C3       C      0.491033333333     0.239033333333     0.239033333333     0          
H1       H      0.485066666667     0.231700000000     0.231700000000     0          
O2       O      0.544666666667     0.239366666667     0.093966666667     0          
C1       C      0.537100000000     0.250000000000     0.083333333333     0          
C2       C      0.517933333333     0.250000000000     0.083333333333     0          
C3       C      0.508966666667     0.239033333333     0.094300000000     0          
H1       H      0.514933333333     0.231700000000     0.101633333333     0          
O2       O      0.455333333333     0.093966666667     0.093966666667     0          
C1       C      0.462900000000     0.083333333333     0.083333333333     0          
C2       C      0.482066666667     0.083333333333     0.083333333333     0          
C3       C      0.491033333333     0.094300000000     0.094300000000     0          
H1       H      0.485066666667     0.101633333333     0.101633333333     0          
O2       O      0.544666666667     0.072700000000     0.072700000000     0          
C1       C      0.537100000000     0.083333333333     0.083333333333     0          
C2       C      0.517933333333     0.083333333333     0.083333333333     0          
C3       C      0.508966666667     0.072366666667     0.072366666667     0          
H1       H      0.514933333333     0.065033333333     0.065033333333     0          
O2       O      0.455333333333     0.260633333333     0.072700000000     0          
C1       C      0.462900000000     0.250000000000     0.083333333333     0          
C2       C      0.482066666667     0.250000000000     0.083333333333     0          
C3       C      0.491033333333     0.260966666667     0.072366666667     0          
H1       H      0.485066666667     0.268300000000     0.065033333333     0          
O2       O      0.544666666667     0.260633333333     0.260633333333     0          
C1       C      0.537100000000     0.250000000000     0.250000000000     0          
C2       C      0.517933333333     0.250000000000     0.250000000000     0          
C3       C      0.508966666667     0.260966666667     0.260966666667     0          
H1       H      0.514933333333     0.268300000000     0.268300000000     0          
O2       O      0.455333333333     0.072700000000     0.260633333333     0          
C1       C      0.462900000000     0.083333333333     0.250000000000     0          
C2       C      0.482066666667     0.083333333333     0.250000000000     0          
C3       C      0.491033333333     0.072366666667     0.260966666667     0          
H1       H      0.485066666667     0.065033333333     0.268300000000     0          
O2       O      0.455333333333     0.239366666667     0.093966666667     0          
C3       C      0.491033333333     0.239033333333     0.094300000000     0          
H1       H      0.485066666667     0.231700000000     0.101633333333     0          
O2       O      0.544666666667     0.093966666667     0.093966666667     0          
C3       C      0.508966666667     0.094300000000     0.094300000000     0          
H1       H      0.514933333333     0.101633333333     0.101633333333     0          
O2       O      0.455333333333     0.093966666667     0.239366666667     0          
C3       C      0.491033333333     0.094300000000     0.239033333333     0          
H1       H      0.485066666667     0.101633333333     0.231700000000     0          
O2       O      0.544666666667     0.239366666667     0.239366666667     0          
C3       C      0.508966666667     0.239033333333     0.239033333333     0          
H1       H      0.514933333333     0.231700000000     0.231700000000     0          
O2       O      0.455333333333     0.260633333333     0.260633333333     0          
C3       C      0.491033333333     0.260966666667     0.260966666667     0          
H1       H      0.485066666667     0.268300000000     0.268300000000     0          
O2       O      0.544666666667     0.072700000000     0.260633333333     0          
C3       C      0.508966666667     0.072366666667     0.260966666667     0          
H1       H      0.514933333333     0.065033333333     0.268300000000     0          
O2       O      0.455333333333     0.072700000000     0.072700000000     0          
C3       C      0.491033333333     0.072366666667     0.072366666667     0          
H1       H      0.485066666667     0.065033333333     0.065033333333     0          
O2       O      0.544666666667     0.260633333333     0.072700000000     0          
C3       C      0.508966666667     0.260966666667     0.072366666667     0          
H1       H      0.514933333333     0.268300000000     0.065033333333     0          
Zn1      Zn     0.431133333333     0.068866666667     0.402200000000     0          
O1       O      0.416666666667     0.083333333333     0.416666666667     0          
O2       O      0.427300000000     0.072700000000     0.378000000000     0          
C1       C      0.416666666667     0.083333333333     0.370433333333     0          
C2       C      0.416666666667     0.083333333333     0.351266666667     0          
C3       C      0.427633333333     0.072366666667     0.342300000000     0          
H1       H      0.434966666667     0.065033333333     0.348266666667     0          
Zn1      Zn     0.597800000000     0.097800000000     0.402200000000     0          
O1       O      0.583333333333     0.083333333333     0.416666666667     0          
O2       O      0.593966666667     0.093966666667     0.378000000000     0          
C1       C      0.583333333333     0.083333333333     0.370433333333     0          
C2       C      0.583333333333     0.083333333333     0.351266666667     0          
C3       C      0.594300000000     0.094300000000     0.342300000000     0          
H1       H      0.601633333333     0.101633333333     0.348266666667     0          
Zn1      Zn     0.568866666667     0.264466666667     0.402200000000     0          
O1       O      0.583333333333     0.250000000000     0.416666666667     0          
O2       O      0.572700000000     0.260633333333     0.378000000000     0          
C1       C      0.583333333333     0.250000000000     0.370433333333     0          
C2       C      0.583333333333     0.250000000000     0.351266666667     0          
C3       C      0.572366666667     0.260966666667     0.342300000000     0          
H1       H      0.565033333333     0.268300000000     0.348266666667     0          
Zn1      Zn     0.402200000000     0.235533333333     0.402200000000     0          
O1       O      0.416666666667     0.250000000000     0.416666666667     0          
O2       O      0.406033333333     0.239366666667     0.378000000000     0          
C1       C      0.416666666667     0.250000000000     0.370433333333     0          
C2       C      0.416666666667     0.250000000000     0.351266666667     0          
C3       C      0.405700000000     0.239033333333     0.342300000000     0          
H1       H      0.398366666667     0.231700000000     0.348266666667     0          
Zn1      Zn     0.431133333333     0.264466666667     0.597800000000     0          
O1       O      0.416666666667     0.250000000000     0.583333333333     0          
O2       O      0.427300000000     0.260633333333     0.622000000000     0          
C1       C      0.416666666667     0.250000000000     0.629566666667     0          
C2       C      0.416666666667     0.250000000000     0.648733333333     0          
C3       C      0.427633333333     0.260966666667     0.657700000000     0          
H1       H      0.434966666667     0.268300000000     0.651733333333     0          
Zn1      Zn     0.402200000000     0.097800000000     0.597800000000     0          
O1       O      0.416666666667     0.083333333333     0.583333333333     0          
O2       O      0.406033333333     0.093966666667     0.622000000000     0          
C1       C      0.416666666667     0.083333333333     0.629566666667     0          
C2       C      0.416666666667     0.083333333333     0.648733333333     0          
C3       C      0.405700000000     0.094300000000     0.657700000000     0          
H1       H      0.398366666667     0.101633333333     0.651733333333     0          
Zn1      Zn     0.568866666667     0.068866666667     0.597800000000     0          
O1       O      0.583333333333     0.083333333333     0.583333333333     0          
O2       O      0.572700000000     0.072700000000     0.622000000000     0          
C1       C      0.583333333333     0.083333333333     0.629566666667     0          
C2       C      0.583333333333     0.083333333333     0.648733333333     0          
C3       C      0.572366666667     0.072366666667     0.657700000000     0          
H1       H      0.565033333333     0.065033333333     0.651733333333     0          
Zn1      Zn     0.597800000000     0.235533333333     0.597800000000     0          
O1       O      0.583333333333     0.250000000000     0.583333333333     0          
O2       O      0.593966666667     0.239366666667     0.622000000000     0          
C1       C      0.583333333333     0.250000000000     0.629566666667     0          
C2       C      0.583333333333     0.250000000000     0.648733333333     0          
C3       C      0.594300000000     0.239033333333     0.657700000000     0          
H1       H      0.601633333333     0.231700000000     0.651733333333     0          
Zn1      Zn     0.402200000000     0.097800000000     0.402200000000     0          
O2       O      0.378000000000     0.093966666667     0.406033333333     0          
C1       C      0.370433333333     0.083333333333     0.416666666667     0          
C2       C      0.351266666667     0.083333333333     0.416666666667     0          
C3       C      0.342300000000     0.094300000000     0.405700000000     0          
H1       H      0.348266666667     0.101633333333     0.398366666667     0          
Zn1      Zn     0.568866666667     0.068866666667     0.402200000000     0          
O2       O      0.572700000000     0.044666666667     0.406033333333     0          
C1       C      0.583333333333     0.037100000000     0.416666666667     0          
C2       C      0.583333333333     0.017933333333     0.416666666667     0          
C3       C      0.572366666667     0.008966666667     0.405700000000     0          
H1       H      0.565033333333     0.014933333333     0.398366666667     0          
Zn1      Zn     0.597800000000     0.235533333333     0.402200000000     0          
O2       O      0.622000000000     0.239366666667     0.406033333333     0          
C1       C      0.629566666667     0.250000000000     0.416666666667     0          
C2       C      0.648733333333     0.250000000000     0.416666666667     0          
C3       C      0.657700000000     0.239033333333     0.405700000000     0          
H1       H      0.651733333333     0.231700000000     0.398366666667     0          
Zn1      Zn     0.431133333333     0.264466666667     0.402200000000     0          
O2       O      0.427300000000     0.288666666667     0.406033333333     0          
C1       C      0.416666666667     0.296233333333     0.416666666667     0          
C2       C      0.416666666667     0.315400000000     0.416666666667     0          
C3       C      0.427633333333     0.324366666667     0.405700000000     0          
H1       H      0.434966666667     0.318400000000     0.398366666667     0          
Zn1      Zn     0.402200000000     0.235533333333     0.597800000000     0          
O2       O      0.378000000000     0.239366666667     0.593966666667     0          
C1       C      0.370433333333     0.250000000000     0.583333333333     0          
C2       C      0.351266666667     0.250000000000     0.583333333333     0          
C3       C      0.342300000000     0.239033333333     0.594300000000     0          
H1       H      0.348266666667     0.231700000000     0.601633333333     0          
Zn1      Zn     0.431133333333     0.068866666667     0.597800000000     0          
O2       O      0.427300000000     0.044666666667     0.593966666667     0          
C1       C      0.416666666667     0.037100000000     0.583333333333     0          
C2       C      0.416666666667     0.017933333333     0.583333333333     0          
C3       C      0.427633333333     0.008966666667     0.594300000000     0          
H1       H      0.434966666667     0.014933333333     0.601633333333     0          
Zn1      Zn     0.597800000000     0.097800000000     0.597800000000     0          
O2       O      0.622000000000     0.093966666667     0.593966666667     0          
C1       C      0.629566666667     0.083333333333     0.583333333333     0          
C2       C      0.648733333333     0.083333333333     0.583333333333     0          
C3       C      0.657700000000     0.094300000000     0.594300000000     0          
H1       H      0.651733333333     0.101633333333     0.601633333333     0          
Zn1      Zn     0.568866666667     0.264466666667     0.597800000000     0          
O2       O      0.572700000000     0.288666666667     0.593966666667     0          
C1       C      0.583333333333     0.296233333333     0.583333333333     0          
C2       C      0.583333333333     0.315400000000     0.583333333333     0          
C3       C      0.572366666667     0.324366666667     0.594300000000     0          
H1       H      0.565033333333     0.318400000000     0.601633333333     0          
Zn1      Zn     0.402200000000     0.068866666667     0.431133333333     0          
O2       O      0.406033333333     0.044666666667     0.427300000000     0          
C1       C      0.416666666667     0.037100000000     0.416666666667     0          
C2       C      0.416666666667     0.017933333333     0.416666666667     0          
C3       C      0.405700000000     0.008966666667     0.427633333333     0          
H1       H      0.398366666667     0.014933333333     0.434966666667     0          
Zn1      Zn     0.402200000000     0.264466666667     0.568866666667     0          
O2       O      0.406033333333     0.288666666667     0.572700000000     0          
C1       C      0.416666666667     0.296233333333     0.583333333333     0          
C2       C      0.416666666667     0.315400000000     0.583333333333     0          
C3       C      0.405700000000     0.324366666667     0.572366666667     0          
H1       H      0.398366666667     0.318400000000     0.565033333333     0          
Zn1      Zn     0.402200000000     0.068866666667     0.568866666667     0          
O2       O      0.378000000000     0.072700000000     0.572700000000     0          
C1       C      0.370433333333     0.083333333333     0.583333333333     0          
C2       C      0.351266666667     0.083333333333     0.583333333333     0          
C3       C      0.342300000000     0.072366666667     0.572366666667     0          
H1       H      0.348266666667     0.065033333333     0.565033333333     0          
Zn1      Zn     0.597800000000     0.068866666667     0.568866666667     0          
O2       O      0.593966666667     0.044666666667     0.572700000000     0          
C1       C      0.583333333333     0.037100000000     0.583333333333     0          
C2       C      0.583333333333     0.017933333333     0.583333333333     0          
C3       C      0.594300000000     0.008966666667     0.572366666667     0          
H1       H      0.601633333333     0.014933333333     0.565033333333     0          
Zn1      Zn     0.597800000000     0.264466666667     0.568866666667     0          
O2       O      0.622000000000     0.260633333333     0.572700000000     0          
C1       C      0.629566666667     0.250000000000     0.583333333333     0          
C2       C      0.648733333333     0.250000000000     0.583333333333     0          
C3       C      0.657700000000     0.260966666667     0.572366666667     0          
H1       H      0.651733333333     0.268300000000     0.565033333333     0          
Zn1      Zn     0.597800000000     0.264466666667     0.431133333333     0          
O2       O      0.593966666667     0.288666666667     0.427300000000     0          
C1       C      0.583333333333     0.296233333333     0.416666666667     0          
C2       C      0.583333333333     0.315400000000     0.416666666667     0          
C3       C      0.594300000000     0.324366666667     0.427633333333     0          
H1       H      0.601633333333     0.318400000000     0.434966666667     0          
Zn1      Zn     0.402200000000     0.264466666667     0.431133333333     0          
O2       O      0.378000000000     0.260633333333     0.427300000000     0          
C1       C      0.370433333333     0.250000000000     0.416666666667     0          
C2       C      0.351266666667     0.250000000000     0.416666666667     0          
C3       C      0.342300000000     0.260966666667     0.427633333333     0          
H1       H      0.348266666667     0.268300000000     0.434966666667     0          
Zn1      Zn     0.597800000000     0.068866666667     0.431133333333     0          
O2       O      0.622000000000     0.072700000000     0.427300000000     0          
C1       C      0.629566666667     0.083333333333     0.416666666667     0          
C2       C      0.648733333333     0.083333333333     0.416666666667     0          
C3       C      0.657700000000     0.072366666667     0.427633333333     0          
H1       H      0.651733333333     0.065033333333     0.434966666667     0          
O2       O      0.572700000000     0.260633333333     0.622000000000     0          
C3       C      0.572366666667     0.260966666667     0.657700000000     0          
H1       H      0.565033333333     0.268300000000     0.651733333333     0          
O2       O      0.406033333333     0.239366666667     0.622000000000     0          
C3       C      0.405700000000     0.239033333333     0.657700000000     0          
H1       H      0.398366666667     0.231700000000     0.651733333333     0          
O2       O      0.427300000000     0.072700000000     0.622000000000     0          
C3       C      0.427633333333     0.072366666667     0.657700000000     0          
H1       H      0.434966666667     0.065033333333     0.651733333333     0          
O2       O      0.593966666667     0.093966666667     0.622000000000     0          
C3       C      0.594300000000     0.094300000000     0.657700000000     0          
H1       H      0.601633333333     0.101633333333     0.651733333333     0          
O2       O      0.572700000000     0.072700000000     0.378000000000     0          
C3       C      0.572366666667     0.072366666667     0.342300000000     0          
H1       H      0.565033333333     0.065033333333     0.348266666667     0          
O2       O      0.593966666667     0.239366666667     0.378000000000     0          
C3       C      0.594300000000     0.239033333333     0.342300000000     0          
H1       H      0.601633333333     0.231700000000     0.348266666667     0          
O2       O      0.427300000000     0.260633333333     0.378000000000     0          
C3       C      0.427633333333     0.260966666667     0.342300000000     0          
H1       H      0.434966666667     0.268300000000     0.348266666667     0          
O2       O      0.406033333333     0.093966666667     0.378000000000     0          
C3       C      0.405700000000     0.094300000000     0.342300000000     0          
H1       H      0.398366666667     0.101633333333     0.348266666667     0          
O2       O      0.622000000000     0.239366666667     0.593966666667     0          
C3       C      0.657700000000     0.239033333333     0.594300000000     0          
H1       H      0.651733333333     0.231700000000     0.601633333333     0          
O2       O      0.427300000000     0.288666666667     0.593966666667     0          
C3       C      0.427633333333     0.324366666667     0.594300000000     0          
H1       H      0.434966666667     0.318400000000     0.601633333333     0          
O2       O      0.378000000000     0.093966666667     0.593966666667     0          
C3       C      0.342300000000     0.094300000000     0.594300000000     0          
H1       H      0.348266666667     0.101633333333     0.601633333333     0          
O2       O      0.572700000000     0.044666666667     0.593966666667     0          
C3       C      0.572366666667     0.008966666667     0.594300000000     0          
H1       H      0.565033333333     0.014933333333     0.601633333333     0          
O2       O      0.622000000000     0.093966666667     0.406033333333     0          
C3       C      0.657700000000     0.094300000000     0.405700000000     0          
H1       H      0.651733333333     0.101633333333     0.398366666667     0          
O2       O      0.572700000000     0.288666666667     0.406033333333     0          
C3       C      0.572366666667     0.324366666667     0.405700000000     0          
H1       H      0.565033333333     0.318400000000     0.398366666667     0          
O2       O      0.378000000000     0.239366666667     0.406033333333     0          
C3       C      0.342300000000     0.239033333333     0.405700000000     0          
H1       H      0.348266666667     0.231700000000     0.398366666667     0          
O2       O      0.427300000000     0.044666666667     0.406033333333     0          
C3       C      0.427633333333     0.008966666667     0.405700000000     0          
H1       H      0.434966666667     0.014933333333     0.398366666667     0          
O2       O      0.593966666667     0.288666666667     0.572700000000     0          
C3       C      0.594300000000     0.324366666667     0.572366666667     0          
H1       H      0.601633333333     0.318400000000     0.565033333333     0          
O2       O      0.593966666667     0.044666666667     0.427300000000     0          
C3       C      0.594300000000     0.008966666667     0.427633333333     0          
H1       H      0.601633333333     0.014933333333     0.434966666667     0          
O2       O      0.622000000000     0.260633333333     0.427300000000     0          
C3       C      0.657700000000     0.260966666667     0.427633333333     0          
H1       H      0.651733333333     0.268300000000     0.434966666667     0          
O2       O      0.406033333333     0.288666666667     0.427300000000     0          
C3       C      0.405700000000     0.324366666667     0.427633333333     0          
H1       H      0.398366666667     0.318400000000     0.434966666667     0          
O2       O      0.378000000000     0.072700000000     0.427300000000     0          
C3       C      0.342300000000     0.072366666667     0.427633333333     0          
H1       H      0.348266666667     0.065033333333     0.434966666667     0          
O2       O      0.406033333333     0.044666666667     0.572700000000     0          
C3       C      0.405700000000     0.008966666667     0.572366666667     0          
H1       H      0.398366666667     0.014933333333     0.565033333333     0          
O2       O      0.622000000000     0.072700000000     0.572700000000     0          
C3       C      0.657700000000     0.072366666667     0.572366666667     0          
H1       H      0.651733333333     0.065033333333     0.565033333333     0          
O2       O      0.378000000000     0.260633333333     0.572700000000     0          
C3       C      0.342300000000     0.260966666667     0.572366666667     0          
H1       H      0.348266666667     0.268300000000     0.565033333333     0          
Zn1      Zn     0.431133333333     0.235533333333     0.568866666667     0          
O2       O      0.427300000000     0.239366666667     0.544666666667     0          
C1       C      0.416666666667     0.250000000000     0.537100000000     0          
C2       C      0.416666666667     0.250000000000     0.517933333333     0          
C3       C      0.427633333333     0.239033333333     0.508966666667     0          
H1       H      0.434966666667     0.231700000000     0.514933333333     0          
O2       O      0.593966666667     0.260633333333     0.544666666667     0          
C1       C      0.583333333333     0.250000000000     0.537100000000     0          
C2       C      0.583333333333     0.250000000000     0.517933333333     0          
C3       C      0.594300000000     0.260966666667     0.508966666667     0          
H1       H      0.601633333333     0.268300000000     0.514933333333     0          
Zn1      Zn     0.568866666667     0.097800000000     0.568866666667     0          
O2       O      0.572700000000     0.093966666667     0.544666666667     0          
C1       C      0.583333333333     0.083333333333     0.537100000000     0          
C2       C      0.583333333333     0.083333333333     0.517933333333     0          
C3       C      0.572366666667     0.094300000000     0.508966666667     0          
H1       H      0.565033333333     0.101633333333     0.514933333333     0          
O2       O      0.406033333333     0.072700000000     0.544666666667     0          
C1       C      0.416666666667     0.083333333333     0.537100000000     0          
C2       C      0.416666666667     0.083333333333     0.517933333333     0          
C3       C      0.405700000000     0.072366666667     0.508966666667     0          
H1       H      0.398366666667     0.065033333333     0.514933333333     0          
Zn1      Zn     0.431133333333     0.097800000000     0.431133333333     0          
O2       O      0.427300000000     0.093966666667     0.455333333333     0          
C1       C      0.416666666667     0.083333333333     0.462900000000     0          
C2       C      0.416666666667     0.083333333333     0.482066666667     0          
C3       C      0.427633333333     0.094300000000     0.491033333333     0          
H1       H      0.434966666667     0.101633333333     0.485066666667     0          
O2       O      0.406033333333     0.260633333333     0.455333333333     0          
C1       C      0.416666666667     0.250000000000     0.462900000000     0          
C2       C      0.416666666667     0.250000000000     0.482066666667     0          
C3       C      0.405700000000     0.260966666667     0.491033333333     0          
H1       H      0.398366666667     0.268300000000     0.485066666667     0          
Zn1      Zn     0.568866666667     0.235533333333     0.431133333333     0          
O2       O      0.572700000000     0.239366666667     0.455333333333     0          
C1       C      0.583333333333     0.250000000000     0.462900000000     0          
C2       C      0.583333333333     0.250000000000     0.482066666667     0          
C3       C      0.572366666667     0.239033333333     0.491033333333     0          
H1       H      0.565033333333     0.231700000000     0.485066666667     0          
O2       O      0.593966666667     0.072700000000     0.455333333333     0          
C1       C      0.583333333333     0.083333333333     0.462900000000     0          
C2       C      0.583333333333     0.083333333333     0.482066666667     0          
C3       C      0.594300000000     0.072366666667     0.491033333333     0          
H1       H      0.601633333333     0.065033333333     0.485066666667     0          
Zn1      Zn     0.568866666667     0.235533333333     0.568866666667     0          
O2       O      0.572700000000     0.211333333333     0.572700000000     0          
C1       C      0.583333333333     0.203766666667     0.583333333333     0          
C2       C      0.583333333333     0.184600000000     0.583333333333     0          
C3       C      0.572366666667     0.175633333333     0.572366666667     0          
H1       H      0.565033333333     0.181600000000     0.565033333333     0          
Zn1      Zn     0.431133333333     0.097800000000     0.568866666667     0          
O2       O      0.427300000000     0.122000000000     0.572700000000     0          
C1       C      0.416666666667     0.129566666667     0.583333333333     0          
C2       C      0.416666666667     0.148733333333     0.583333333333     0          
C3       C      0.427633333333     0.157700000000     0.572366666667     0          
H1       H      0.434966666667     0.151733333333     0.565033333333     0          
Zn1      Zn     0.431133333333     0.235533333333     0.431133333333     0          
O2       O      0.427300000000     0.211333333333     0.427300000000     0          
C1       C      0.416666666667     0.203766666667     0.416666666667     0          
C2       C      0.416666666667     0.184600000000     0.416666666667     0          
C3       C      0.427633333333     0.175633333333     0.427633333333     0          
H1       H      0.434966666667     0.181600000000     0.434966666667     0          
Zn1      Zn     0.568866666667     0.097800000000     0.431133333333     0          
O2       O      0.572700000000     0.122000000000     0.427300000000     0          
C1       C      0.583333333333     0.129566666667     0.416666666667     0          
C2       C      0.583333333333     0.148733333333     0.416666666667     0          
C3       C      0.572366666667     0.157700000000     0.427633333333     0          
H1       H      0.565033333333     0.151733333333     0.434966666667     0          
O2       O      0.406033333333     0.211333333333     0.593966666667     0          
C1       C      0.416666666667     0.203766666667     0.583333333333     0          
C2       C      0.416666666667     0.184600000000     0.583333333333     0          
C3       C      0.405700000000     0.175633333333     0.594300000000     0          
H1       H      0.398366666667     0.181600000000     0.601633333333     0          
O2       O      0.406033333333     0.122000000000     0.406033333333     0          
C1       C      0.416666666667     0.129566666667     0.416666666667     0          
C2       C      0.416666666667     0.148733333333     0.416666666667     0          
C3       C      0.405700000000     0.157700000000     0.405700000000     0          
H1       H      0.398366666667     0.151733333333     0.398366666667     0          
O2       O      0.593966666667     0.211333333333     0.406033333333     0          
C1       C      0.583333333333     0.203766666667     0.416666666667     0          
C2       C      0.583333333333     0.184600000000     0.416666666667     0          
C3       C      0.594300000000     0.175633333333     0.405700000000     0          
H1       H      0.601633333333     0.181600000000     0.398366666667     0          
O2       O      0.593966666667     0.122000000000     0.593966666667     0          
C1       C      0.583333333333     0.129566666667     0.583333333333     0          
C2       C      0.583333333333     0.148733333333     0.583333333333     0          
C3       C      0.594300000000     0.157700000000     0.594300000000     0          
H1       H      0.601633333333     0.151733333333     0.601633333333     0          
O2       O      0.572700000000     0.093966666667     0.455333333333     0          
C3       C      0.572366666667     0.094300000000     0.491033333333     0          
H1       H      0.565033333333     0.101633333333     0.485066666667     0          
O2       O      0.406033333333     0.072700000000     0.455333333333     0          
C3       C      0.405700000000     0.072366666667     0.491033333333     0          
H1       H      0.398366666667     0.065033333333     0.485066666667     0          
O2       O      0.427300000000     0.239366666667     0.455333333333     0          
C3       C      0.427633333333     0.239033333333     0.491033333333     0          
H1       H      0.434966666667     0.231700000000     0.485066666667     0          
O2       O      0.593966666667     0.260633333333     0.455333333333     0          
C3       C      0.594300000000     0.260966666667     0.491033333333     0          
H1       H      0.601633333333     0.268300000000     0.485066666667     0          
O2       O      0.572700000000     0.239366666667     0.544666666667     0          
C3       C      0.572366666667     0.239033333333     0.508966666667     0          
H1       H      0.565033333333     0.231700000000     0.514933333333     0          
O2       O      0.593966666667     0.072700000000     0.544666666667     0          
C3       C      0.594300000000     0.072366666667     0.508966666667     0          
H1       H      0.601633333333     0.065033333333     0.514933333333     0          
O2       O      0.427300000000     0.093966666667     0.544666666667     0          
C3       C      0.427633333333     0.094300000000     0.508966666667     0          
H1       H      0.434966666667     0.101633333333     0.514933333333     0          
O2       O      0.406033333333     0.260633333333     0.544666666667     0          
C3       C      0.405700000000     0.260966666667     0.508966666667     0          
H1       H      0.398366666667     0.268300000000     0.514933333333     0          
O2       O      0.427300000000     0.122000000000     0.427300000000     0          
C3       C      0.427633333333     0.157700000000     0.427633333333     0          
H1       H      0.434966666667     0.151733333333     0.434966666667     0          
O2       O      0.572700000000     0.211333333333     0.427300000000     0          
C3       C      0.572366666667     0.175633333333     0.427633333333     0          
H1       H      0.565033333333     0.181600000000     0.434966666667     0          
O2       O      0.572700000000     0.122000000000     0.572700000000     0          
C3       C      0.572366666667     0.157700000000     0.572366666667     0          
H1       H      0.565033333333     0.151733333333     0.565033333333     0          
O2       O      0.427300000000     0.211333333333     0.572700000000     0          
C3       C      0.427633333333     0.175633333333     0.572366666667     0          
H1       H      0.434966666667     0.181600000000     0.565033333333     0          
O2       O      0.593966666667     0.122000000000     0.406033333333     0          
C3       C      0.594300000000     0.157700000000     0.405700000000     0          
H1       H      0.601633333333     0.151733333333     0.398366666667     0          
O2       O      0.593966666667     0.211333333333     0.593966666667     0          
C3       C      0.594300000000     0.175633333333     0.594300000000     0          
H1       H      0.601633333333     0.181600000000     0.601633333333     0          
O2       O      0.406033333333     0.122000000000     0.593966666667     0          
C3       C      0.405700000000     0.157700000000     0.594300000000     0          
H1       H      0.398366666667     0.151733333333     0.601633333333     0          
O2       O      0.406033333333     0.211333333333     0.406033333333     0          
C3       C      0.405700000000     0.175633333333     0.405700000000     0          
H1       H      0.398366666667     0.181600000000     0.398366666667     0          
O2       O      0.544666666667     0.093966666667     0.572700000000     0          
C1       C      0.537100000000     0.083333333333     0.583333333333     0          
C2       C      0.517933333333     0.083333333333     0.583333333333     0          
C3       C      0.508966666667     0.094300000000     0.572366666667     0          
H1       H      0.514933333333     0.101633333333     0.565033333333     0          
O2       O      0.455333333333     0.239366666667     0.572700000000     0          
C1       C      0.462900000000     0.250000000000     0.583333333333     0          
C2       C      0.482066666667     0.250000000000     0.583333333333     0          
C3       C      0.491033333333     0.239033333333     0.572366666667     0          
H1       H      0.485066666667     0.231700000000     0.565033333333     0          
O2       O      0.544666666667     0.239366666667     0.427300000000     0          
C1       C      0.537100000000     0.250000000000     0.416666666667     0          
C2       C      0.517933333333     0.250000000000     0.416666666667     0          
C3       C      0.508966666667     0.239033333333     0.427633333333     0          
H1       H      0.514933333333     0.231700000000     0.434966666667     0          
O2       O      0.455333333333     0.093966666667     0.427300000000     0          
C1       C      0.462900000000     0.083333333333     0.416666666667     0          
C2       C      0.482066666667     0.083333333333     0.416666666667     0          
C3       C      0.491033333333     0.094300000000     0.427633333333     0          
H1       H      0.485066666667     0.101633333333     0.434966666667     0          
O2       O      0.544666666667     0.072700000000     0.406033333333     0          
C1       C      0.537100000000     0.083333333333     0.416666666667     0          
C2       C      0.517933333333     0.083333333333     0.416666666667     0          
C3       C      0.508966666667     0.072366666667     0.405700000000     0          
H1       H      0.514933333333     0.065033333333     0.398366666667     0          
O2       O      0.455333333333     0.260633333333     0.406033333333     0          
C1       C      0.462900000000     0.250000000000     0.416666666667     0          
C2       C      0.482066666667     0.250000000000     0.416666666667     0          
C3       C      0.491033333333     0.260966666667     0.405700000000     0          
H1       H      0.485066666667     0.268300000000     0.398366666667     0          
O2       O      0.544666666667     0.260633333333     0.593966666667     0          
C1       C      0.537100000000     0.250000000000     0.583333333333     0          
C2       C      0.517933333333     0.250000000000     0.583333333333     0          
C3       C      0.508966666667     0.260966666667     0.594300000000     0          
H1       H      0.514933333333     0.268300000000     0.601633333333     0          
O2       O      0.455333333333     0.072700000000     0.593966666667     0          
C1       C      0.462900000000     0.083333333333     0.583333333333     0          
C2       C      0.482066666667     0.083333333333     0.583333333333     0          
C3       C      0.491033333333     0.072366666667     0.594300000000     0          
H1       H      0.485066666667     0.065033333333     0.601633333333     0          
O2       O      0.455333333333     0.239366666667     0.427300000000     0          
C3       C      0.491033333333     0.239033333333     0.427633333333     0          
H1       H      0.485066666667     0.231700000000     0.434966666667     0          
O2       O      0.544666666667     0.093966666667     0.427300000000     0          
C3       C      0.508966666667     0.094300000000     0.427633333333     0          
H1       H      0.514933333333     0.101633333333     0.434966666667     0          
O2       O      0.455333333333     0.093966666667     0.572700000000     0          
C3       C      0.491033333333     0.094300000000     0.572366666667     0          
H1       H      0.485066666667     0.101633333333     0.565033333333     0          
O2       O      0.544666666667     0.239366666667     0.572700000000     0          
C3       C      0.508966666667     0.239033333333     0.572366666667     0          
H1       H      0.514933333333     0.231700000000     0.565033333333     0          
O2       O      0.455333333333     0.260633333333     0.593966666667     0          
C3       C      0.491033333333     0.260966666667     0.594300000000     0          
H1       H      0.485066666667     0.268300000000     0.601633333333     0          
O2       O      0.544666666667     0.072700000000     0.593966666667     0          
C3       C      0.508966666667     0.072366666667     0.594300000000     0          
H1       H      0.514933333333     0.065033333333     0.601633333333     0          
O2       O      0.455333333333     0.072700000000     0.406033333333     0          
C3       C      0.491033333333     0.072366666667     0.405700000000     0          
H1       H      0.485066666667     0.065033333333     0.398366666667     0          
O2       O      0.544666666667     0.260633333333     0.406033333333     0          
C3       C      0.508966666667     0.260966666667     0.405700000000     0          
H1       H      0.514933333333     0.268300000000     0.398366666667     0          
Zn1      Zn     0.431133333333     0.068866666667     0.735533333333     0          
O1       O      0.416666666667     0.083333333333     0.750000000000     0          
O2       O      0.427300000000     0.072700000000     0.711333333333     0          
C1       C      0.416666666667     0.083333333333     0.703766666667     0          
C2       C      0.416666666667     0.083333333333     0.684600000000     0          
C3       C      0.427633333333     0.072366666667     0.675633333333     0          
H1       H      0.434966666667     0.065033333333     0.681600000000     0          
Zn1      Zn     0.597800000000     0.097800000000     0.735533333333     0          
O1       O      0.583333333333     0.083333333333     0.750000000000     0          
O2       O      0.593966666667     0.093966666667     0.711333333333     0          
C1       C      0.583333333333     0.083333333333     0.703766666667     0          
C2       C      0.583333333333     0.083333333333     0.684600000000     0          
C3       C      0.594300000000     0.094300000000     0.675633333333     0          
H1       H      0.601633333333     0.101633333333     0.681600000000     0          
Zn1      Zn     0.568866666667     0.264466666667     0.735533333333     0          
O1       O      0.583333333333     0.250000000000     0.750000000000     0          
O2       O      0.572700000000     0.260633333333     0.711333333333     0          
C1       C      0.583333333333     0.250000000000     0.703766666667     0          
C2       C      0.583333333333     0.250000000000     0.684600000000     0          
C3       C      0.572366666667     0.260966666667     0.675633333333     0          
H1       H      0.565033333333     0.268300000000     0.681600000000     0          
Zn1      Zn     0.402200000000     0.235533333333     0.735533333333     0          
O1       O      0.416666666667     0.250000000000     0.750000000000     0          
O2       O      0.406033333333     0.239366666667     0.711333333333     0          
C1       C      0.416666666667     0.250000000000     0.703766666667     0          
C2       C      0.416666666667     0.250000000000     0.684600000000     0          
C3       C      0.405700000000     0.239033333333     0.675633333333     0          
H1       H      0.398366666667     0.231700000000     0.681600000000     0          
Zn1      Zn     0.431133333333     0.264466666667     0.931133333333     0          
O1       O      0.416666666667     0.250000000000     0.916666666667     0          
O2       O      0.427300000000     0.260633333333     0.955333333333     0          
C1       C      0.416666666667     0.250000000000     0.962900000000     0          
C2       C      0.416666666667     0.250000000000     0.982066666667     0          
C3       C      0.427633333333     0.260966666667     0.991033333333     0          
H1       H      0.434966666667     0.268300000000     0.985066666667     0          
Zn1      Zn     0.402200000000     0.097800000000     0.931133333333     0          
O1       O      0.416666666667     0.083333333333     0.916666666667     0          
O2       O      0.406033333333     0.093966666667     0.955333333333     0          
C1       C      0.416666666667     0.083333333333     0.962900000000     0          
C2       C      0.416666666667     0.083333333333     0.982066666667     0          
C3       C      0.405700000000     0.094300000000     0.991033333333     0          
H1       H      0.398366666667     0.101633333333     0.985066666667     0          
Zn1      Zn     0.568866666667     0.068866666667     0.931133333333     0          
O1       O      0.583333333333     0.083333333333     0.916666666667     0          
O2       O      0.572700000000     0.072700000000     0.955333333333     0          
C1       C      0.583333333333     0.083333333333     0.962900000000     0          
C2       C      0.583333333333     0.083333333333     0.982066666667     0          
C3       C      0.572366666667     0.072366666667     0.991033333333     0          
H1       H      0.565033333333     0.065033333333     0.985066666667     0          
Zn1      Zn     0.597800000000     0.235533333333     0.931133333333     0          
O1       O      0.583333333333     0.250000000000     0.916666666667     0          
O2       O      0.593966666667     0.239366666667     0.955333333333     0          
C1       C      0.583333333333     0.250000000000     0.962900000000     0          
C2       C      0.583333333333     0.250000000000     0.982066666667     0          
C3       C      0.594300000000     0.239033333333     0.991033333333     0          
H1       H      0.601633333333     0.231700000000     0.985066666667     0          
Zn1      Zn     0.402200000000     0.097800000000     0.735533333333     0          
O2       O      0.378000000000     0.093966666667     0.739366666667     0          
C1       C      0.370433333333     0.083333333333     0.750000000000     0          
C2       C      0.351266666667     0.083333333333     0.750000000000     0          
C3       C      0.342300000000     0.094300000000     0.739033333333     0          
H1       H      0.348266666667     0.101633333333     0.731700000000     0          
Zn1      Zn     0.568866666667     0.068866666667     0.735533333333     0          
O2       O      0.572700000000     0.044666666667     0.739366666667     0          
C1       C      0.583333333333     0.037100000000     0.750000000000     0          
C2       C      0.583333333333     0.017933333333     0.750000000000     0          
C3       C      0.572366666667     0.008966666667     0.739033333333     0          
H1       H      0.565033333333     0.014933333333     0.731700000000     0          
Zn1      Zn     0.597800000000     0.235533333333     0.735533333333     0          
O2       O      0.622000000000     0.239366666667     0.739366666667     0          
C1       C      0.629566666667     0.250000000000     0.750000000000     0          
C2       C      0.648733333333     0.250000000000     0.750000000000     0          
C3       C      0.657700000000     0.239033333333     0.739033333333     0          
H1       H      0.651733333333     0.231700000000     0.731700000000     0          
Zn1      Zn     0.431133333333     0.264466666667     0.735533333333     0          
O2       O      0.427300000000     0.288666666667     0.739366666667     0          
C1       C      0.416666666667     0.296233333333     0.750000000000     0          
C2       C      0.416666666667     0.315400000000     0.750000000000     0          
C3       C      0.427633333333     0.324366666667     0.739033333333     0          
H1       H      0.434966666667     0.318400000000     0.731700000000     0          
Zn1      Zn     0.402200000000     0.235533333333     0.931133333333     0          
O2       O      0.378000000000     0.239366666667     0.927300000000     0          
C1       C      0.370433333333     0.250000000000     0.916666666667     0          
C2       C      0.351266666667     0.250000000000     0.916666666667     0          
C3       C      0.342300000000     0.239033333333     0.927633333333     0          
H1       H      0.348266666667     0.231700000000     0.934966666667     0          
Zn1      Zn     0.431133333333     0.068866666667     0.931133333333     0          
O2       O      0.427300000000     0.044666666667     0.927300000000     0          
C1       C      0.416666666667     0.037100000000     0.916666666667     0          
C2       C      0.416666666667     0.017933333333     0.916666666667     0          
C3       C      0.427633333333     0.008966666667     0.927633333333     0          
H1       H      0.434966666667     0.014933333333     0.934966666667     0          
Zn1      Zn     0.597800000000     0.097800000000     0.931133333333     0          
O2       O      0.622000000000     0.093966666667     0.927300000000     0          
C1       C      0.629566666667     0.083333333333     0.916666666667     0          
C2       C      0.648733333333     0.083333333333     0.916666666667     0          
C3       C      0.657700000000     0.094300000000     0.927633333333     0          
H1       H      0.651733333333     0.101633333333     0.934966666667     0          
Zn1      Zn     0.568866666667     0.264466666667     0.931133333333     0          
O2       O      0.572700000000     0.288666666667     0.927300000000     0          
C1       C      0.583333333333     0.296233333333     0.916666666667     0          
C2       C      0.583333333333     0.315400000000     0.916666666667     0          
C3       C      0.572366666667     0.324366666667     0.927633333333     0          
H1       H      0.565033333333     0.318400000000     0.934966666667     0          
Zn1      Zn     0.402200000000     0.068866666667     0.764466666667     0          
O2       O      0.406033333333     0.044666666667     0.760633333333     0          
C1       C      0.416666666667     0.037100000000     0.750000000000     0          
C2       C      0.416666666667     0.017933333333     0.750000000000     0          
C3       C      0.405700000000     0.008966666667     0.760966666667     0          
H1       H      0.398366666667     0.014933333333     0.768300000000     0          
Zn1      Zn     0.402200000000     0.264466666667     0.902200000000     0          
O2       O      0.406033333333     0.288666666667     0.906033333333     0          
C1       C      0.416666666667     0.296233333333     0.916666666667     0          
C2       C      0.416666666667     0.315400000000     0.916666666667     0          
C3       C      0.405700000000     0.324366666667     0.905700000000     0          
H1       H      0.398366666667     0.318400000000     0.898366666667     0          
Zn1      Zn     0.402200000000     0.068866666667     0.902200000000     0          
O2       O      0.378000000000     0.072700000000     0.906033333333     0          
C1       C      0.370433333333     0.083333333333     0.916666666667     0          
C2       C      0.351266666667     0.083333333333     0.916666666667     0          
C3       C      0.342300000000     0.072366666667     0.905700000000     0          
H1       H      0.348266666667     0.065033333333     0.898366666667     0          
Zn1      Zn     0.597800000000     0.068866666667     0.902200000000     0          
O2       O      0.593966666667     0.044666666667     0.906033333333     0          
C1       C      0.583333333333     0.037100000000     0.916666666667     0          
C2       C      0.583333333333     0.017933333333     0.916666666667     0          
C3       C      0.594300000000     0.008966666667     0.905700000000     0          
H1       H      0.601633333333     0.014933333333     0.898366666667     0          
Zn1      Zn     0.597800000000     0.264466666667     0.902200000000     0          
O2       O      0.622000000000     0.260633333333     0.906033333333     0          
C1       C      0.629566666667     0.250000000000     0.916666666667     0          
C2       C      0.648733333333     0.250000000000     0.916666666667     0          
C3       C      0.657700000000     0.260966666667     0.905700000000     0          
H1       H      0.651733333333     0.268300000000     0.898366666667     0          
Zn1      Zn     0.597800000000     0.264466666667     0.764466666667     0          
O2       O      0.593966666667     0.288666666667     0.760633333333     0          
C1       C      0.583333333333     0.296233333333     0.750000000000     0          
C2       C      0.583333333333     0.315400000000     0.750000000000     0          
C3       C      0.594300000000     0.324366666667     0.760966666667     0          
H1       H      0.601633333333     0.318400000000     0.768300000000     0          
Zn1      Zn     0.402200000000     0.264466666667     0.764466666667     0          
O2       O      0.378000000000     0.260633333333     0.760633333333     0          
C1       C      0.370433333333     0.250000000000     0.750000000000     0          
C2       C      0.351266666667     0.250000000000     0.750000000000     0          
C3       C      0.342300000000     0.260966666667     0.760966666667     0          
H1       H      0.348266666667     0.268300000000     0.768300000000     0          
Zn1      Zn     0.597800000000     0.068866666667     0.764466666667     0          
O2       O      0.622000000000     0.072700000000     0.760633333333     0          
C1       C      0.629566666667     0.083333333333     0.750000000000     0          
C2       C      0.648733333333     0.083333333333     0.750000000000     0          
C3       C      0.657700000000     0.072366666667     0.760966666667     0          
H1       H      0.651733333333     0.065033333333     0.768300000000     0          
O2       O      0.572700000000     0.260633333333     0.955333333333     0          
C3       C      0.572366666667     0.260966666667     0.991033333333     0          
H1       H      0.565033333333     0.268300000000     0.985066666667     0          
O2       O      0.406033333333     0.239366666667     0.955333333333     0          
C3       C      0.405700000000     0.239033333333     0.991033333333     0          
H1       H      0.398366666667     0.231700000000     0.985066666667     0          
O2       O      0.427300000000     0.072700000000     0.955333333333     0          
C3       C      0.427633333333     0.072366666667     0.991033333333     0          
H1       H      0.434966666667     0.065033333333     0.985066666667     0          
O2       O      0.593966666667     0.093966666667     0.955333333333     0          
C3       C      0.594300000000     0.094300000000     0.991033333333     0          
H1       H      0.601633333333     0.101633333333     0.985066666667     0          
O2       O      0.572700000000     0.072700000000     0.711333333333     0          
C3       C      0.572366666667     0.072366666667     0.675633333333     0          
H1       H      0.565033333333     0.065033333333     0.681600000000     0          
O2       O      0.593966666667     0.239366666667     0.711333333333     0          
C3       C      0.594300000000     0.239033333333     0.675633333333     0          
H1       H      0.601633333333     0.231700000000     0.681600000000     0          
O2       O      0.427300000000     0.260633333333     0.711333333333     0          
C3       C      0.427633333333     0.260966666667     0.675633333333     0          
H1       H      0.434966666667     0.268300000000     0.681600000000     0          
O2       O      0.406033333333     0.093966666667     0.711333333333     0          
C3       C      0.405700000000     0.094300000000     0.675633333333     0          
H1       H      0.398366666667     0.101633333333     0.681600000000     0          
O2       O      0.622000000000     0.239366666667     0.927300000000     0          
C3       C      0.657700000000     0.239033333333     0.927633333333     0          
H1       H      0.651733333333     0.231700000000     0.934966666667     0          
O2       O      0.427300000000     0.288666666667     0.927300000000     0          
C3       C      0.427633333333     0.324366666667     0.927633333333     0          
H1       H      0.434966666667     0.318400000000     0.934966666667     0          
O2       O      0.378000000000     0.093966666667     0.927300000000     0          
C3       C      0.342300000000     0.094300000000     0.927633333333     0          
H1       H      0.348266666667     0.101633333333     0.934966666667     0          
O2       O      0.572700000000     0.044666666667     0.927300000000     0          
C3       C      0.572366666667     0.008966666667     0.927633333333     0          
H1       H      0.565033333333     0.014933333333     0.934966666667     0          
O2       O      0.622000000000     0.093966666667     0.739366666667     0          
C3       C      0.657700000000     0.094300000000     0.739033333333     0          
H1       H      0.651733333333     0.101633333333     0.731700000000     0          
O2       O      0.572700000000     0.288666666667     0.739366666667     0          
C3       C      0.572366666667     0.324366666667     0.739033333333     0          
H1       H      0.565033333333     0.318400000000     0.731700000000     0          
O2       O      0.378000000000     0.239366666667     0.739366666667     0          
C3       C      0.342300000000     0.239033333333     0.739033333333     0          
H1       H      0.348266666667     0.231700000000     0.731700000000     0          
O2       O      0.427300000000     0.044666666667     0.739366666667     0          
C3       C      0.427633333333     0.008966666667     0.739033333333     0          
H1       H      0.434966666667     0.014933333333     0.731700000000     0          
O2       O      0.593966666667     0.288666666667     0.906033333333     0          
C3       C      0.594300000000     0.324366666667     0.905700000000     0          
H1       H      0.601633333333     0.318400000000     0.898366666667     0          
O2       O      0.593966666667     0.044666666667     0.760633333333     0          
C3       C      0.594300000000     0.008966666667     0.760966666667     0          
H1       H      0.601633333333     0.014933333333     0.768300000000     0          
O2       O      0.622000000000     0.260633333333     0.760633333333     0          
C3       C      0.657700000000     0.260966666667     0.760966666667     0          
H1       H      0.651733333333     0.268300000000     0.768300000000     0          
O2       O      0.406033333333     0.288666666667     0.760633333333     0          
C3       C      0.405700000000     0.324366666667     0.760966666667     0          
H1       H      0.398366666667     0.318400000000     0.768300000000     0          
O2       O      0.378000000000     0.072700000000     0.760633333333     0          
C3       C      0.342300000000     0.072366666667     0.760966666667     0          
H1       H      0.348266666667     0.065033333333     0.768300000000     0          
O2       O      0.406033333333     0.044666666667     0.906033333333     0          
C3       C      0.405700000000     0.008966666667     0.905700000000     0          
H1       H      0.398366666667     0.014933333333     0.898366666667     0          
O2       O      0.622000000000     0.072700000000     0.906033333333     0          
C3       C      0.657700000000     0.072366666667     0.905700000000     0          
H1       H      0.651733333333     0.065033333333     0.898366666667     0          
O2       O      0.378000000000     0.260633333333     0.906033333333     0          
C3       C      0.342300000000     0.260966666667     0.905700000000     0          
H1       H      0.348266666667     0.268300000000     0.898366666667     0          
Zn1      Zn     0.431133333333     0.235533333333     0.902200000000     0          
O2       O      0.427300000000     0.239366666667     0.878000000000     0          
C1       C      0.416666666667     0.250000000000     0.870433333333     0          
C2       C      0.416666666667     0.250000000000     0.851266666667     0          
C3       C      0.427633333333     0.239033333333     0.842300000000     0          
H1       H      0.434966666667     0.231700000000     0.848266666667     0          
O2       O      0.593966666667     0.260633333333     0.878000000000     0          
C1       C      0.583333333333     0.250000000000     0.870433333333     0          
C2       C      0.583333333333     0.250000000000     0.851266666667     0          
C3       C      0.594300000000     0.260966666667     0.842300000000     0          
H1       H      0.601633333333     0.268300000000     0.848266666667     0          
Zn1      Zn     0.568866666667     0.097800000000     0.902200000000     0          
O2       O      0.572700000000     0.093966666667     0.878000000000     0          
C1       C      0.583333333333     0.083333333333     0.870433333333     0          
C2       C      0.583333333333     0.083333333333     0.851266666667     0          
C3       C      0.572366666667     0.094300000000     0.842300000000     0          
H1       H      0.565033333333     0.101633333333     0.848266666667     0          
O2       O      0.406033333333     0.072700000000     0.878000000000     0          
C1       C      0.416666666667     0.083333333333     0.870433333333     0          
C2       C      0.416666666667     0.083333333333     0.851266666667     0          
C3       C      0.405700000000     0.072366666667     0.842300000000     0          
H1       H      0.398366666667     0.065033333333     0.848266666667     0          
Zn1      Zn     0.431133333333     0.097800000000     0.764466666667     0          
O2       O      0.427300000000     0.093966666667     0.788666666667     0          
C1       C      0.416666666667     0.083333333333     0.796233333333     0          
C2       C      0.416666666667     0.083333333333     0.815400000000     0          
C3       C      0.427633333333     0.094300000000     0.824366666667     0          
H1       H      0.434966666667     0.101633333333     0.818400000000     0          
O2       O      0.406033333333     0.260633333333     0.788666666667     0          
C1       C      0.416666666667     0.250000000000     0.796233333333     0          
C2       C      0.416666666667     0.250000000000     0.815400000000     0          
C3       C      0.405700000000     0.260966666667     0.824366666667     0          
H1       H      0.398366666667     0.268300000000     0.818400000000     0          
Zn1      Zn     0.568866666667     0.235533333333     0.764466666667     0          
O2       O      0.572700000000     0.239366666667     0.788666666667     0          
C1       C      0.583333333333     0.250000000000     0.796233333333     0          
C2       C      0.583333333333     0.250000000000     0.815400000000     0          
C3       C      0.572366666667     0.239033333333     0.824366666667     0          
H1       H      0.565033333333     0.231700000000     0.818400000000     0          
O2       O      0.593966666667     0.072700000000     0.788666666667     0          
C1       C      0.583333333333     0.083333333333     0.796233333333     0          
C2       C      0.583333333333     0.083333333333     0.815400000000     0          
C3       C      0.594300000000     0.072366666667     0.824366666667     0          
H1       H      0.601633333333     0.065033333333     0.818400000000     0          
Zn1      Zn     0.568866666667     0.235533333333     0.902200000000     0          
O2       O      0.572700000000     0.211333333333     0.906033333333     0          
C1       C      0.583333333333     0.203766666667     0.916666666667     0          
C2       C      0.583333333333     0.184600000000     0.916666666667     0          
C3       C      0.572366666667     0.175633333333     0.905700000000     0          
H1       H      0.565033333333     0.181600000000     0.898366666667     0          
Zn1      Zn     0.431133333333     0.097800000000     0.902200000000     0          
O2       O      0.427300000000     0.122000000000     0.906033333333     0          
C1       C      0.416666666667     0.129566666667     0.916666666667     0          
C2       C      0.416666666667     0.148733333333     0.916666666667     0          
C3       C      0.427633333333     0.157700000000     0.905700000000     0          
H1       H      0.434966666667     0.151733333333     0.898366666667     0          
Zn1      Zn     0.431133333333     0.235533333333     0.764466666667     0          
O2       O      0.427300000000     0.211333333333     0.760633333333     0          
C1       C      0.416666666667     0.203766666667     0.750000000000     0          
C2       C      0.416666666667     0.184600000000     0.750000000000     0          
C3       C      0.427633333333     0.175633333333     0.760966666667     0          
H1       H      0.434966666667     0.181600000000     0.768300000000     0          
Zn1      Zn     0.568866666667     0.097800000000     0.764466666667     0          
O2       O      0.572700000000     0.122000000000     0.760633333333     0          
C1       C      0.583333333333     0.129566666667     0.750000000000     0          
C2       C      0.583333333333     0.148733333333     0.750000000000     0          
C3       C      0.572366666667     0.157700000000     0.760966666667     0          
H1       H      0.565033333333     0.151733333333     0.768300000000     0          
O2       O      0.406033333333     0.211333333333     0.927300000000     0          
C1       C      0.416666666667     0.203766666667     0.916666666667     0          
C2       C      0.416666666667     0.184600000000     0.916666666667     0          
C3       C      0.405700000000     0.175633333333     0.927633333333     0          
H1       H      0.398366666667     0.181600000000     0.934966666667     0          
O2       O      0.406033333333     0.122000000000     0.739366666667     0          
C1       C      0.416666666667     0.129566666667     0.750000000000     0          
C2       C      0.416666666667     0.148733333333     0.750000000000     0          
C3       C      0.405700000000     0.157700000000     0.739033333333     0          
H1       H      0.398366666667     0.151733333333     0.731700000000     0          
O2       O      0.593966666667     0.211333333333     0.739366666667     0          
C1       C      0.583333333333     0.203766666667     0.750000000000     0          
C2       C      0.583333333333     0.184600000000     0.750000000000     0          
C3       C      0.594300000000     0.175633333333     0.739033333333     0          
H1       H      0.601633333333     0.181600000000     0.731700000000     0          
O2       O      0.593966666667     0.122000000000     0.927300000000     0          
C1       C      0.583333333333     0.129566666667     0.916666666667     0          
C2       C      0.583333333333     0.148733333333     0.916666666667     0          
C3       C      0.594300000000     0.157700000000     0.927633333333     0          
H1       H      0.601633333333     0.151733333333     0.934966666667     0          
O2       O      0.572700000000     0.093966666667     0.788666666667     0          
C3       C      0.572366666667     0.094300000000     0.824366666667     0          
H1       H      0.565033333333     0.101633333333     0.818400000000     0          
O2       O      0.406033333333     0.072700000000     0.788666666667     0          
C3       C      0.405700000000     0.072366666667     0.824366666667     0          
H1       H      0.398366666667     0.065033333333     0.818400000000     0          
O2       O      0.427300000000     0.239366666667     0.788666666667     0          
C3       C      0.427633333333     0.239033333333     0.824366666667     0          
H1       H      0.434966666667     0.231700000000     0.818400000000     0          
O2       O      0.593966666667     0.260633333333     0.788666666667     0          
C3       C      0.594300000000     0.260966666667     0.824366666667     0          
H1       H      0.601633333333     0.268300000000     0.818400000000     0          
O2       O      0.572700000000     0.239366666667     0.878000000000     0          
C3       C      0.572366666667     0.239033333333     0.842300000000     0          
H1       H      0.565033333333     0.231700000000     0.848266666667     0          
O2       O      0.593966666667     0.072700000000     0.878000000000     0          
C3       C      0.594300000000     0.072366666667     0.842300000000     0          
H1       H      0.601633333333     0.065033333333     0.848266666667     0          
O2       O      0.427300000000     0.093966666667     0.878000000000     0          
C3       C      0.427633333333     0.094300000000     0.842300000000     0          
H1       H      0.434966666667     0.101633333333     0.848266666667     0          
O2       O      0.406033333333     0.260633333333     0.878000000000     0          
C3       C      0.405700000000     0.260966666667     0.842300000000     0          
H1       H      0.398366666667     0.268300000000     0.848266666667     0          
O2       O      0.427300000000     0.122000000000     0.760633333333     0          
C3       C      0.427633333333     0.157700000000     0.760966666667     0          
H1       H      0.434966666667     0.151733333333     0.768300000000     0          
O2       O      0.572700000000     0.211333333333     0.760633333333     0          
C3       C      0.572366666667     0.175633333333     0.760966666667     0          
H1       H      0.565033333333     0.181600000000     0.768300000000     0          
O2       O      0.572700000000     0.122000000000     0.906033333333     0          
C3       C      0.572366666667     0.157700000000     0.905700000000     0          
H1       H      0.565033333333     0.151733333333     0.898366666667     0          
O2       O      0.427300000000     0.211333333333     0.906033333333     0          
C3       C      0.427633333333     0.175633333333     0.905700000000     0          
H1       H      0.434966666667     0.181600000000     0.898366666667     0          
O2       O      0.593966666667     0.122000000000     0.739366666667     0          
C3       C      0.594300000000     0.157700000000     0.739033333333     0          
H1       H      0.601633333333     0.151733333333     0.731700000000     0          
O2       O      0.593966666667     0.211333333333     0.927300000000     0          
C3       C      0.594300000000     0.175633333333     0.927633333333     0          
H1       H      0.601633333333     0.181600000000     0.934966666667     0          
O2       O      0.406033333333     0.122000000000     0.927300000000     0          
C3       C      0.405700000000     0.157700000000     0.927633333333     0          
H1       H      0.398366666667     0.151733333333     0.934966666667     0          
O2       O      0.406033333333     0.211333333333     0.739366666667     0          
C3       C      0.405700000000     0.175633333333     0.739033333333     0          
H1       H      0.398366666667     0.181600000000     0.731700000000     0          
O2       O      0.544666666667     0.093966666667     0.906033333333     0          
C1       C      0.537100000000     0.083333333333     0.916666666667     0          
C2       C      0.517933333333     0.083333333333     0.916666666667     0          
C3       C      0.508966666667     0.094300000000     0.905700000000     0          
H1       H      0.514933333333     0.101633333333     0.898366666667     0          
O2       O      0.455333333333     0.239366666667     0.906033333333     0          
C1       C      0.462900000000     0.250000000000     0.916666666667     0          
C2       C      0.482066666667     0.250000000000     0.916666666667     0          
C3       C      0.491033333333     0.239033333333     0.905700000000     0          
H1       H      0.485066666667     0.231700000000     0.898366666667     0          
O2       O      0.544666666667     0.239366666667     0.760633333333     0          
C1       C      0.537100000000     0.250000000000     0.750000000000     0          
C2       C      0.517933333333     0.250000000000     0.750000000000     0          
C3       C      0.508966666667     0.239033333333     0.760966666667     0          
H1       H      0.514933333333     0.231700000000     0.768300000000     0          
O2       O      0.455333333333     0.093966666667     0.760633333333     0          
C1       C      0.462900000000     0.083333333333     0.750000000000     0          
C2       C      0.482066666667     0.083333333333     0.750000000000     0          
C3       C      0.491033333333     0.094300000000     0.760966666667     0          
H1       H      0.485066666667     0.101633333333     0.768300000000     0          
O2       O      0.544666666667     0.072700000000     0.739366666667     0          
C1       C      0.537100000000     0.083333333333     0.750000000000     0          
C2       C      0.517933333333     0.083333333333     0.750000000000     0          
C3       C      0.508966666667     0.072366666667     0.739033333333     0          
H1       H      0.514933333333     0.065033333333     0.731700000000     0          
O2       O      0.455333333333     0.260633333333     0.739366666667     0          
C1       C      0.462900000000     0.250000000000     0.750000000000     0          
C2       C      0.482066666667     0.250000000000     0.750000000000     0          
C3       C      0.491033333333     0.260966666667     0.739033333333     0          
H1       H      0.485066666667     0.268300000000     0.731700000000     0          
O2       O      0.544666666667     0.260633333333     0.927300000000     0          
C1       C      0.537100000000     0.250000000000     0.916666666667     0          
C2       C      0.517933333333     0.250000000000     0.916666666667     0          
C3       C      0.508966666667     0.260966666667     0.927633333333     0          
H1       H      0.514933333333     0.268300000000     0.934966666667     0          
O2       O      0.455333333333     0.072700000000     0.927300000000     0          
C1       C      0.462900000000     0.083333333333     0.916666666667     0          
C2       C      0.482066666667     0.083333333333     0.916666666667     0          
C3       C      0.491033333333     0.072366666667     0.927633333333     0          
H1       H      0.485066666667     0.065033333333     0.934966666667     0          
O2       O      0.455333333333     0.239366666667     0.760633333333     0          
C3       C      0.491033333333     0.239033333333     0.760966666667     0          
H1       H      0.485066666667     0.231700000000     0.768300000000     0          
O2       O      0.544666666667     0.093966666667     0.760633333333     0          
C3       C      0.508966666667     0.094300000000     0.760966666667     0          
H1       H      0.514933333333     0.101633333333     0.768300000000     0          
O2       O      0.455333333333     0.093966666667     0.906033333333     0          
C3       C      0.491033333333     0.094300000000     0.905700000000     0          
H1       H      0.485066666667     0.101633333333     0.898366666667     0          
O2       O      0.544666666667     0.239366666667     0.906033333333     0          
C3       C      0.508966666667     0.239033333333     0.905700000000     0          
H1       H      0.514933333333     0.231700000000     0.898366666667     0          
O2       O      0.455333333333     0.260633333333     0.927300000000     0          
C3       C      0.491033333333     0.260966666667     0.927633333333     0          
H1       H      0.485066666667     0.268300000000     0.934966666667     0          
O2       O      0.544666666667     0.072700000000     0.927300000000     0          
C3       C      0.508966666667     0.072366666667     0.927633333333     0          
H1       H      0.514933333333     0.065033333333     0.934966666667     0          
O2       O      0.455333333333     0.072700000000     0.739366666667     0          
C3       C      0.491033333333     0.072366666667     0.739033333333     0          
H1       H      0.485066666667     0.065033333333     0.731700000000     0          
O2       O      0.544666666667     0.260633333333     0.739366666667     0          
C3       C      0.508966666667     0.260966666667     0.739033333333     0          
H1       H      0.514933333333     0.268300000000     0.731700000000     0          
Zn1      Zn     0.431133333333     0.402200000000     0.068866666667     0          
O1       O      0.416666666667     0.416666666667     0.083333333333     0          
O2       O      0.427300000000     0.406033333333     0.044666666667     0          
C1       C      0.416666666667     0.416666666667     0.037100000000     0          
C2       C      0.416666666667     0.416666666667     0.017933333333     0          
C3       C      0.427633333333     0.405700000000     0.008966666667     0          
H1       H      0.434966666667     0.398366666667     0.014933333333     0          
Zn1      Zn     0.597800000000     0.431133333333     0.068866666667     0          
O1       O      0.583333333333     0.416666666667     0.083333333333     0          
O2       O      0.593966666667     0.427300000000     0.044666666667     0          
C1       C      0.583333333333     0.416666666667     0.037100000000     0          
C2       C      0.583333333333     0.416666666667     0.017933333333     0          
C3       C      0.594300000000     0.427633333333     0.008966666667     0          
H1       H      0.601633333333     0.434966666667     0.014933333333     0          
Zn1      Zn     0.568866666667     0.597800000000     0.068866666667     0          
O1       O      0.583333333333     0.583333333333     0.083333333333     0          
O2       O      0.572700000000     0.593966666667     0.044666666667     0          
C1       C      0.583333333333     0.583333333333     0.037100000000     0          
C2       C      0.583333333333     0.583333333333     0.017933333333     0          
C3       C      0.572366666667     0.594300000000     0.008966666667     0          
H1       H      0.565033333333     0.601633333333     0.014933333333     0          
Zn1      Zn     0.402200000000     0.568866666667     0.068866666667     0          
O1       O      0.416666666667     0.583333333333     0.083333333333     0          
O2       O      0.406033333333     0.572700000000     0.044666666667     0          
C1       C      0.416666666667     0.583333333333     0.037100000000     0          
C2       C      0.416666666667     0.583333333333     0.017933333333     0          
C3       C      0.405700000000     0.572366666667     0.008966666667     0          
H1       H      0.398366666667     0.565033333333     0.014933333333     0          
Zn1      Zn     0.431133333333     0.597800000000     0.264466666667     0          
O1       O      0.416666666667     0.583333333333     0.250000000000     0          
O2       O      0.427300000000     0.593966666667     0.288666666667     0          
C1       C      0.416666666667     0.583333333333     0.296233333333     0          
C2       C      0.416666666667     0.583333333333     0.315400000000     0          
C3       C      0.427633333333     0.594300000000     0.324366666667     0          
H1       H      0.434966666667     0.601633333333     0.318400000000     0          
Zn1      Zn     0.402200000000     0.431133333333     0.264466666667     0          
O1       O      0.416666666667     0.416666666667     0.250000000000     0          
O2       O      0.406033333333     0.427300000000     0.288666666667     0          
C1       C      0.416666666667     0.416666666667     0.296233333333     0          
C2       C      0.416666666667     0.416666666667     0.315400000000     0          
C3       C      0.405700000000     0.427633333333     0.324366666667     0          
H1       H      0.398366666667     0.434966666667     0.318400000000     0          
Zn1      Zn     0.568866666667     0.402200000000     0.264466666667     0          
O1       O      0.583333333333     0.416666666667     0.250000000000     0          
O2       O      0.572700000000     0.406033333333     0.288666666667     0          
C1       C      0.583333333333     0.416666666667     0.296233333333     0          
C2       C      0.583333333333     0.416666666667     0.315400000000     0          
C3       C      0.572366666667     0.405700000000     0.324366666667     0          
H1       H      0.565033333333     0.398366666667     0.318400000000     0          
Zn1      Zn     0.597800000000     0.568866666667     0.264466666667     0          
O1       O      0.583333333333     0.583333333333     0.250000000000     0          
O2       O      0.593966666667     0.572700000000     0.288666666667     0          
C1       C      0.583333333333     0.583333333333     0.296233333333     0          
C2       C      0.583333333333     0.583333333333     0.315400000000     0          
C3       C      0.594300000000     0.572366666667     0.324366666667     0          
H1       H      0.601633333333     0.565033333333     0.318400000000     0          
Zn1      Zn     0.402200000000     0.431133333333     0.068866666667     0          
O2       O      0.378000000000     0.427300000000     0.072700000000     0          
C1       C      0.370433333333     0.416666666667     0.083333333333     0          
C2       C      0.351266666667     0.416666666667     0.083333333333     0          
C3       C      0.342300000000     0.427633333333     0.072366666667     0          
H1       H      0.348266666667     0.434966666667     0.065033333333     0          
Zn1      Zn     0.568866666667     0.402200000000     0.068866666667     0          
O2       O      0.572700000000     0.378000000000     0.072700000000     0          
C1       C      0.583333333333     0.370433333333     0.083333333333     0          
C2       C      0.583333333333     0.351266666667     0.083333333333     0          
C3       C      0.572366666667     0.342300000000     0.072366666667     0          
H1       H      0.565033333333     0.348266666667     0.065033333333     0          
Zn1      Zn     0.597800000000     0.568866666667     0.068866666667     0          
O2       O      0.622000000000     0.572700000000     0.072700000000     0          
C1       C      0.629566666667     0.583333333333     0.083333333333     0          
C2       C      0.648733333333     0.583333333333     0.083333333333     0          
C3       C      0.657700000000     0.572366666667     0.072366666667     0          
H1       H      0.651733333333     0.565033333333     0.065033333333     0          
Zn1      Zn     0.431133333333     0.597800000000     0.068866666667     0          
O2       O      0.427300000000     0.622000000000     0.072700000000     0          
C1       C      0.416666666667     0.629566666667     0.083333333333     0          
C2       C      0.416666666667     0.648733333333     0.083333333333     0          
C3       C      0.427633333333     0.657700000000     0.072366666667     0          
H1       H      0.434966666667     0.651733333333     0.065033333333     0          
Zn1      Zn     0.402200000000     0.568866666667     0.264466666667     0          
O2       O      0.378000000000     0.572700000000     0.260633333333     0          
C1       C      0.370433333333     0.583333333333     0.250000000000     0          
C2       C      0.351266666667     0.583333333333     0.250000000000     0          
C3       C      0.342300000000     0.572366666667     0.260966666667     0          
H1       H      0.348266666667     0.565033333333     0.268300000000     0          
Zn1      Zn     0.431133333333     0.402200000000     0.264466666667     0          
O2       O      0.427300000000     0.378000000000     0.260633333333     0          
C1       C      0.416666666667     0.370433333333     0.250000000000     0          
C2       C      0.416666666667     0.351266666667     0.250000000000     0          
C3       C      0.427633333333     0.342300000000     0.260966666667     0          
H1       H      0.434966666667     0.348266666667     0.268300000000     0          
Zn1      Zn     0.597800000000     0.431133333333     0.264466666667     0          
O2       O      0.622000000000     0.427300000000     0.260633333333     0          
C1       C      0.629566666667     0.416666666667     0.250000000000     0          
C2       C      0.648733333333     0.416666666667     0.250000000000     0          
C3       C      0.657700000000     0.427633333333     0.260966666667     0          
H1       H      0.651733333333     0.434966666667     0.268300000000     0          
Zn1      Zn     0.568866666667     0.597800000000     0.264466666667     0          
O2       O      0.572700000000     0.622000000000     0.260633333333     0          
C1       C      0.583333333333     0.629566666667     0.250000000000     0          
C2       C      0.583333333333     0.648733333333     0.250000000000     0          
C3       C      0.572366666667     0.657700000000     0.260966666667     0          
H1       H      0.565033333333     0.651733333333     0.268300000000     0          
Zn1      Zn     0.402200000000     0.402200000000     0.097800000000     0          
O2       O      0.406033333333     0.378000000000     0.093966666667     0          
C1       C      0.416666666667     0.370433333333     0.083333333333     0          
C2       C      0.416666666667     0.351266666667     0.083333333333     0          
C3       C      0.405700000000     0.342300000000     0.094300000000     0          
H1       H      0.398366666667     0.348266666667     0.101633333333     0          
Zn1      Zn     0.402200000000     0.597800000000     0.235533333333     0          
O2       O      0.406033333333     0.622000000000     0.239366666667     0          
C1       C      0.416666666667     0.629566666667     0.250000000000     0          
C2       C      0.416666666667     0.648733333333     0.250000000000     0          
C3       C      0.405700000000     0.657700000000     0.239033333333     0          
H1       H      0.398366666667     0.651733333333     0.231700000000     0          
Zn1      Zn     0.402200000000     0.402200000000     0.235533333333     0          
O2       O      0.378000000000     0.406033333333     0.239366666667     0          
C1       C      0.370433333333     0.416666666667     0.250000000000     0          
C2       C      0.351266666667     0.416666666667     0.250000000000     0          
C3       C      0.342300000000     0.405700000000     0.239033333333     0          
H1       H      0.348266666667     0.398366666667     0.231700000000     0          
Zn1      Zn     0.597800000000     0.402200000000     0.235533333333     0          
O2       O      0.593966666667     0.378000000000     0.239366666667     0          
C1       C      0.583333333333     0.370433333333     0.250000000000     0          
C2       C      0.583333333333     0.351266666667     0.250000000000     0          
C3       C      0.594300000000     0.342300000000     0.239033333333     0          
H1       H      0.601633333333     0.348266666667     0.231700000000     0          
Zn1      Zn     0.597800000000     0.597800000000     0.235533333333     0          
O2       O      0.622000000000     0.593966666667     0.239366666667     0          
C1       C      0.629566666667     0.583333333333     0.250000000000     0          
C2       C      0.648733333333     0.583333333333     0.250000000000     0          
C3       C      0.657700000000     0.594300000000     0.239033333333     0          
H1       H      0.651733333333     0.601633333333     0.231700000000     0          
Zn1      Zn     0.597800000000     0.597800000000     0.097800000000     0          
O2       O      0.593966666667     0.622000000000     0.093966666667     0          
C1       C      0.583333333333     0.629566666667     0.083333333333     0          
C2       C      0.583333333333     0.648733333333     0.083333333333     0          
C3       C      0.594300000000     0.657700000000     0.094300000000     0          
H1       H      0.601633333333     0.651733333333     0.101633333333     0          
Zn1      Zn     0.402200000000     0.597800000000     0.097800000000     0          
O2       O      0.378000000000     0.593966666667     0.093966666667     0          
C1       C      0.370433333333     0.583333333333     0.083333333333     0          
C2       C      0.351266666667     0.583333333333     0.083333333333     0          
C3       C      0.342300000000     0.594300000000     0.094300000000     0          
H1       H      0.348266666667     0.601633333333     0.101633333333     0          
Zn1      Zn     0.597800000000     0.402200000000     0.097800000000     0          
O2       O      0.622000000000     0.406033333333     0.093966666667     0          
C1       C      0.629566666667     0.416666666667     0.083333333333     0          
C2       C      0.648733333333     0.416666666667     0.083333333333     0          
C3       C      0.657700000000     0.405700000000     0.094300000000     0          
H1       H      0.651733333333     0.398366666667     0.101633333333     0          
O2       O      0.572700000000     0.593966666667     0.288666666667     0          
C3       C      0.572366666667     0.594300000000     0.324366666667     0          
H1       H      0.565033333333     0.601633333333     0.318400000000     0          
O2       O      0.406033333333     0.572700000000     0.288666666667     0          
C3       C      0.405700000000     0.572366666667     0.324366666667     0          
H1       H      0.398366666667     0.565033333333     0.318400000000     0          
O2       O      0.427300000000     0.406033333333     0.288666666667     0          
C3       C      0.427633333333     0.405700000000     0.324366666667     0          
H1       H      0.434966666667     0.398366666667     0.318400000000     0          
O2       O      0.593966666667     0.427300000000     0.288666666667     0          
C3       C      0.594300000000     0.427633333333     0.324366666667     0          
H1       H      0.601633333333     0.434966666667     0.318400000000     0          
O2       O      0.572700000000     0.406033333333     0.044666666667     0          
C3       C      0.572366666667     0.405700000000     0.008966666667     0          
H1       H      0.565033333333     0.398366666667     0.014933333333     0          
O2       O      0.593966666667     0.572700000000     0.044666666667     0          
C3       C      0.594300000000     0.572366666667     0.008966666667     0          
H1       H      0.601633333333     0.565033333333     0.014933333333     0          
O2       O      0.427300000000     0.593966666667     0.044666666667     0          
C3       C      0.427633333333     0.594300000000     0.008966666667     0          
H1       H      0.434966666667     0.601633333333     0.014933333333     0          
O2       O      0.406033333333     0.427300000000     0.044666666667     0          
C3       C      0.405700000000     0.427633333333     0.008966666667     0          
H1       H      0.398366666667     0.434966666667     0.014933333333     0          
O2       O      0.622000000000     0.572700000000     0.260633333333     0          
C3       C      0.657700000000     0.572366666667     0.260966666667     0          
H1       H      0.651733333333     0.565033333333     0.268300000000     0          
O2       O      0.427300000000     0.622000000000     0.260633333333     0          
C3       C      0.427633333333     0.657700000000     0.260966666667     0          
H1       H      0.434966666667     0.651733333333     0.268300000000     0          
O2       O      0.378000000000     0.427300000000     0.260633333333     0          
C3       C      0.342300000000     0.427633333333     0.260966666667     0          
H1       H      0.348266666667     0.434966666667     0.268300000000     0          
O2       O      0.572700000000     0.378000000000     0.260633333333     0          
C3       C      0.572366666667     0.342300000000     0.260966666667     0          
H1       H      0.565033333333     0.348266666667     0.268300000000     0          
O2       O      0.622000000000     0.427300000000     0.072700000000     0          
C3       C      0.657700000000     0.427633333333     0.072366666667     0          
H1       H      0.651733333333     0.434966666667     0.065033333333     0          
O2       O      0.572700000000     0.622000000000     0.072700000000     0          
C3       C      0.572366666667     0.657700000000     0.072366666667     0          
H1       H      0.565033333333     0.651733333333     0.065033333333     0          
O2       O      0.378000000000     0.572700000000     0.072700000000     0          
C3       C      0.342300000000     0.572366666667     0.072366666667     0          
H1       H      0.348266666667     0.565033333333     0.065033333333     0          
O2       O      0.427300000000     0.378000000000     0.072700000000     0          
C3       C      0.427633333333     0.342300000000     0.072366666667     0          
H1       H      0.434966666667     0.348266666667     0.065033333333     0          
O2       O      0.593966666667     0.622000000000     0.239366666667     0          
C3       C      0.594300000000     0.657700000000     0.239033333333     0          
H1       H      0.601633333333     0.651733333333     0.231700000000     0          
O2       O      0.593966666667     0.378000000000     0.093966666667     0          
C3       C      0.594300000000     0.342300000000     0.094300000000     0          
H1       H      0.601633333333     0.348266666667     0.101633333333     0          
O2       O      0.622000000000     0.593966666667     0.093966666667     0          
C3       C      0.657700000000     0.594300000000     0.094300000000     0          
H1       H      0.651733333333     0.601633333333     0.101633333333     0          
O2       O      0.406033333333     0.622000000000     0.093966666667     0          
C3       C      0.405700000000     0.657700000000     0.094300000000     0          
H1       H      0.398366666667     0.651733333333     0.101633333333     0          
O2       O      0.378000000000     0.406033333333     0.093966666667     0          
C3       C      0.342300000000     0.405700000000     0.094300000000     0          
H1       H      0.348266666667     0.398366666667     0.101633333333     0          
O2       O      0.406033333333     0.378000000000     0.239366666667     0          
C3       C      0.405700000000     0.342300000000     0.239033333333     0          
H1       H      0.398366666667     0.348266666667     0.231700000000     0          
O2       O      0.622000000000     0.406033333333     0.239366666667     0          
C3       C      0.657700000000     0.405700000000     0.239033333333     0          
H1       H      0.651733333333     0.398366666667     0.231700000000     0          
O2       O      0.378000000000     0.593966666667     0.239366666667     0          
C3       C      0.342300000000     0.594300000000     0.239033333333     0          
H1       H      0.348266666667     0.601633333333     0.231700000000     0          
Zn1      Zn     0.431133333333     0.568866666667     0.235533333333     0          
O2       O      0.427300000000     0.572700000000     0.211333333333     0          
C1       C      0.416666666667     0.583333333333     0.203766666667     0          
C2       C      0.416666666667     0.583333333333     0.184600000000     0          
C3       C      0.427633333333     0.572366666667     0.175633333333     0          
H1       H      0.434966666667     0.565033333333     0.181600000000     0          
O2       O      0.593966666667     0.593966666667     0.211333333333     0          
C1       C      0.583333333333     0.583333333333     0.203766666667     0          
C2       C      0.583333333333     0.583333333333     0.184600000000     0          
C3       C      0.594300000000     0.594300000000     0.175633333333     0          
H1       H      0.601633333333     0.601633333333     0.181600000000     0          
Zn1      Zn     0.568866666667     0.431133333333     0.235533333333     0          
O2       O      0.572700000000     0.427300000000     0.211333333333     0          
C1       C      0.583333333333     0.416666666667     0.203766666667     0          
C2       C      0.583333333333     0.416666666667     0.184600000000     0          
C3       C      0.572366666667     0.427633333333     0.175633333333     0          
H1       H      0.565033333333     0.434966666667     0.181600000000     0          
O2       O      0.406033333333     0.406033333333     0.211333333333     0          
C1       C      0.416666666667     0.416666666667     0.203766666667     0          
C2       C      0.416666666667     0.416666666667     0.184600000000     0          
C3       C      0.405700000000     0.405700000000     0.175633333333     0          
H1       H      0.398366666667     0.398366666667     0.181600000000     0          
Zn1      Zn     0.431133333333     0.431133333333     0.097800000000     0          
O2       O      0.427300000000     0.427300000000     0.122000000000     0          
C1       C      0.416666666667     0.416666666667     0.129566666667     0          
C2       C      0.416666666667     0.416666666667     0.148733333333     0          
C3       C      0.427633333333     0.427633333333     0.157700000000     0          
H1       H      0.434966666667     0.434966666667     0.151733333333     0          
O2       O      0.406033333333     0.593966666667     0.122000000000     0          
C1       C      0.416666666667     0.583333333333     0.129566666667     0          
C2       C      0.416666666667     0.583333333333     0.148733333333     0          
C3       C      0.405700000000     0.594300000000     0.157700000000     0          
H1       H      0.398366666667     0.601633333333     0.151733333333     0          
Zn1      Zn     0.568866666667     0.568866666667     0.097800000000     0          
O2       O      0.572700000000     0.572700000000     0.122000000000     0          
C1       C      0.583333333333     0.583333333333     0.129566666667     0          
C2       C      0.583333333333     0.583333333333     0.148733333333     0          
C3       C      0.572366666667     0.572366666667     0.157700000000     0          
H1       H      0.565033333333     0.565033333333     0.151733333333     0          
O2       O      0.593966666667     0.406033333333     0.122000000000     0          
C1       C      0.583333333333     0.416666666667     0.129566666667     0          
C2       C      0.583333333333     0.416666666667     0.148733333333     0          
C3       C      0.594300000000     0.405700000000     0.157700000000     0          
H1       H      0.601633333333     0.398366666667     0.151733333333     0          
Zn1      Zn     0.568866666667     0.568866666667     0.235533333333     0          
O2       O      0.572700000000     0.544666666667     0.239366666667     0          
C1       C      0.583333333333     0.537100000000     0.250000000000     0          
C2       C      0.583333333333     0.517933333333     0.250000000000     0          
C3       C      0.572366666667     0.508966666667     0.239033333333     0          
H1       H      0.565033333333     0.514933333333     0.231700000000     0          
Zn1      Zn     0.431133333333     0.431133333333     0.235533333333     0          
O2       O      0.427300000000     0.455333333333     0.239366666667     0          
C1       C      0.416666666667     0.462900000000     0.250000000000     0          
C2       C      0.416666666667     0.482066666667     0.250000000000     0          
C3       C      0.427633333333     0.491033333333     0.239033333333     0          
H1       H      0.434966666667     0.485066666667     0.231700000000     0          
Zn1      Zn     0.431133333333     0.568866666667     0.097800000000     0          
O2       O      0.427300000000     0.544666666667     0.093966666667     0          
C1       C      0.416666666667     0.537100000000     0.083333333333     0          
C2       C      0.416666666667     0.517933333333     0.083333333333     0          
C3       C      0.427633333333     0.508966666667     0.094300000000     0          
H1       H      0.434966666667     0.514933333333     0.101633333333     0          
Zn1      Zn     0.568866666667     0.431133333333     0.097800000000     0          
O2       O      0.572700000000     0.455333333333     0.093966666667     0          
C1       C      0.583333333333     0.462900000000     0.083333333333     0          
C2       C      0.583333333333     0.482066666667     0.083333333333     0          
C3       C      0.572366666667     0.491033333333     0.094300000000     0          
H1       H      0.565033333333     0.485066666667     0.101633333333     0          
O2       O      0.406033333333     0.544666666667     0.260633333333     0          
C1       C      0.416666666667     0.537100000000     0.250000000000     0          
C2       C      0.416666666667     0.517933333333     0.250000000000     0          
C3       C      0.405700000000     0.508966666667     0.260966666667     0          
H1       H      0.398366666667     0.514933333333     0.268300000000     0          
O2       O      0.406033333333     0.455333333333     0.072700000000     0          
C1       C      0.416666666667     0.462900000000     0.083333333333     0          
C2       C      0.416666666667     0.482066666667     0.083333333333     0          
C3       C      0.405700000000     0.491033333333     0.072366666667     0          
H1       H      0.398366666667     0.485066666667     0.065033333333     0          
O2       O      0.593966666667     0.544666666667     0.072700000000     0          
C1       C      0.583333333333     0.537100000000     0.083333333333     0          
C2       C      0.583333333333     0.517933333333     0.083333333333     0          
C3       C      0.594300000000     0.508966666667     0.072366666667     0          
H1       H      0.601633333333     0.514933333333     0.065033333333     0          
O2       O      0.593966666667     0.455333333333     0.260633333333     0          
C1       C      0.583333333333     0.462900000000     0.250000000000     0          
C2       C      0.583333333333     0.482066666667     0.250000000000     0          
C3       C      0.594300000000     0.491033333333     0.260966666667     0          
H1       H      0.601633333333     0.485066666667     0.268300000000     0          
O2       O      0.572700000000     0.427300000000     0.122000000000     0          
C3       C      0.572366666667     0.427633333333     0.157700000000     0          
H1       H      0.565033333333     0.434966666667     0.151733333333     0          
O2       O      0.406033333333     0.406033333333     0.122000000000     0          
C3       C      0.405700000000     0.405700000000     0.157700000000     0          
H1       H      0.398366666667     0.398366666667     0.151733333333     0          
O2       O      0.427300000000     0.572700000000     0.122000000000     0          
C3       C      0.427633333333     0.572366666667     0.157700000000     0          
H1       H      0.434966666667     0.565033333333     0.151733333333     0          
O2       O      0.593966666667     0.593966666667     0.122000000000     0          
C3       C      0.594300000000     0.594300000000     0.157700000000     0          
H1       H      0.601633333333     0.601633333333     0.151733333333     0          
O2       O      0.572700000000     0.572700000000     0.211333333333     0          
C3       C      0.572366666667     0.572366666667     0.175633333333     0          
H1       H      0.565033333333     0.565033333333     0.181600000000     0          
O2       O      0.593966666667     0.406033333333     0.211333333333     0          
C3       C      0.594300000000     0.405700000000     0.175633333333     0          
H1       H      0.601633333333     0.398366666667     0.181600000000     0          
O2       O      0.427300000000     0.427300000000     0.211333333333     0          
C3       C      0.427633333333     0.427633333333     0.175633333333     0          
H1       H      0.434966666667     0.434966666667     0.181600000000     0          
O2       O      0.406033333333     0.593966666667     0.211333333333     0          
C3       C      0.405700000000     0.594300000000     0.175633333333     0          
H1       H      0.398366666667     0.601633333333     0.181600000000     0          
O2       O      0.427300000000     0.455333333333     0.093966666667     0          
C3       C      0.427633333333     0.491033333333     0.094300000000     0          
H1       H      0.434966666667     0.485066666667     0.101633333333     0          
O2       O      0.572700000000     0.544666666667     0.093966666667     0          
C3       C      0.572366666667     0.508966666667     0.094300000000     0          
H1       H      0.565033333333     0.514933333333     0.101633333333     0          
O2       O      0.572700000000     0.455333333333     0.239366666667     0          
C3       C      0.572366666667     0.491033333333     0.239033333333     0          
H1       H      0.565033333333     0.485066666667     0.231700000000     0          
O2       O      0.427300000000     0.544666666667     0.239366666667     0          
C3       C      0.427633333333     0.508966666667     0.239033333333     0          
H1       H      0.434966666667     0.514933333333     0.231700000000     0          
O2       O      0.593966666667     0.455333333333     0.072700000000     0          
C3       C      0.594300000000     0.491033333333     0.072366666667     0          
H1       H      0.601633333333     0.485066666667     0.065033333333     0          
O2       O      0.593966666667     0.544666666667     0.260633333333     0          
C3       C      0.594300000000     0.508966666667     0.260966666667     0          
H1       H      0.601633333333     0.514933333333     0.268300000000     0          
O2       O      0.406033333333     0.455333333333     0.260633333333     0          
C3       C      0.405700000000     0.491033333333     0.260966666667     0          
H1       H      0.398366666667     0.485066666667     0.268300000000     0          
O2       O      0.406033333333     0.544666666667     0.072700000000     0          
C3       C      0.405700000000     0.508966666667     0.072366666667     0          
H1       H      0.398366666667     0.514933333333     0.065033333333     0          
O2       O      0.544666666667     0.427300000000     0.239366666667     0          
C1       C      0.537100000000     0.416666666667     0.250000000000     0          
C2       C      0.517933333333     0.416666666667     0.250000000000     0          
C3       C      0.508966666667     0.427633333333     0.239033333333     0          
H1       H      0.514933333333     0.434966666667     0.231700000000     0          
O2       O      0.455333333333     0.572700000000     0.239366666667     0          
C1       C      0.462900000000     0.583333333333     0.250000000000     0          
C2       C      0.482066666667     0.583333333333     0.250000000000     0          
C3       C      0.491033333333     0.572366666667     0.239033333333     0          
H1       H      0.485066666667     0.565033333333     0.231700000000     0          
O2       O      0.544666666667     0.572700000000     0.093966666667     0          
C1       C      0.537100000000     0.583333333333     0.083333333333     0          
C2       C      0.517933333333     0.583333333333     0.083333333333     0          
C3       C      0.508966666667     0.572366666667     0.094300000000     0          
H1       H      0.514933333333     0.565033333333     0.101633333333     0          
O2       O      0.455333333333     0.427300000000     0.093966666667     0          
C1       C      0.462900000000     0.416666666667     0.083333333333     0          
C2       C      0.482066666667     0.416666666667     0.083333333333     0          
C3       C      0.491033333333     0.427633333333     0.094300000000     0          
H1       H      0.485066666667     0.434966666667     0.101633333333     0          
O2       O      0.544666666667     0.406033333333     0.072700000000     0          
C1       C      0.537100000000     0.416666666667     0.083333333333     0          
C2       C      0.517933333333     0.416666666667     0.083333333333     0          
C3       C      0.508966666667     0.405700000000     0.072366666667     0          
H1       H      0.514933333333     0.398366666667     0.065033333333     0          
O2       O      0.455333333333     0.593966666667     0.072700000000     0          
C1       C      0.462900000000     0.583333333333     0.083333333333     0          
C2       C      0.482066666667     0.583333333333     0.083333333333     0          
C3       C      0.491033333333     0.594300000000     0.072366666667     0          
H1       H      0.485066666667     0.601633333333     0.065033333333     0          
O2       O      0.544666666667     0.593966666667     0.260633333333     0          
C1       C      0.537100000000     0.583333333333     0.250000000000     0          
C2       C      0.517933333333     0.583333333333     0.250000000000     0          
C3       C      0.508966666667     0.594300000000     0.260966666667     0          
H1       H      0.514933333333     0.601633333333     0.268300000000     0          
O2       O      0.455333333333     0.406033333333     0.260633333333     0          
C1       C      0.462900000000     0.416666666667     0.250000000000     0          
C2       C      0.482066666667     0.416666666667     0.250000000000     0          
C3       C      0.491033333333     0.405700000000     0.260966666667     0          
H1       H      0.485066666667     0.398366666667     0.268300000000     0          
O2       O      0.455333333333     0.572700000000     0.093966666667     0          
C3       C      0.491033333333     0.572366666667     0.094300000000     0          
H1       H      0.485066666667     0.565033333333     0.101633333333     0          
O2       O      0.544666666667     0.427300000000     0.093966666667     0          
C3       C      0.508966666667     0.427633333333     0.094300000000     0          
H1       H      0.514933333333     0.434966666667     0.101633333333     0          
O2       O      0.455333333333     0.427300000000     0.239366666667     0          
C3       C      0.491033333333     0.427633333333     0.239033333333     0          
H1       H      0.485066666667     0.434966666667     0.231700000000     0          
O2       O      0.544666666667     0.572700000000     0.239366666667     0          
C3       C      0.508966666667     0.572366666667     0.239033333333     0          
H1       H      0.514933333333     0.565033333333     0.231700000000     0          
O2       O      0.455333333333     0.593966666667     0.260633333333     0          
C3       C      0.491033333333     0.594300000000     0.260966666667     0          
H1       H      0.485066666667     0.601633333333     0.268300000000     0          
O2       O      0.544666666667     0.406033333333     0.260633333333     0          
C3       C      0.508966666667     0.405700000000     0.260966666667     0          
H1       H      0.514933333333     0.398366666667     0.268300000000     0          
O2       O      0.455333333333     0.406033333333     0.072700000000     0          
C3       C      0.491033333333     0.405700000000     0.072366666667     0          
H1       H      0.485066666667     0.398366666667     0.065033333333     0          
O2       O      0.544666666667     0.593966666667     0.072700000000     0          
C3       C      0.508966666667     0.594300000000     0.072366666667     0          
H1       H      0.514933333333     0.601633333333     0.065033333333     0          
Zn1      Zn     0.431133333333     0.402200000000     0.402200000000     0          
O1       O      0.416666666667     0.416666666667     0.416666666667     0          
O2       O      0.427300000000     0.406033333333     0.378000000000     0          
C1       C      0.416666666667     0.416666666667     0.370433333333     0          
C2       C      0.416666666667     0.416666666667     0.351266666667     0          
C3       C      0.427633333333     0.405700000000     0.342300000000     0          
H1       H      0.434966666667     0.398366666667     0.348266666667     0          
Zn1      Zn     0.597800000000     0.431133333333     0.402200000000     0          
O1       O      0.583333333333     0.416666666667     0.416666666667     0          
O2       O      0.593966666667     0.427300000000     0.378000000000     0          
C1       C      0.583333333333     0.416666666667     0.370433333333     0          
C2       C      0.583333333333     0.416666666667     0.351266666667     0          
C3       C      0.594300000000     0.427633333333     0.342300000000     0          
H1       H      0.601633333333     0.434966666667     0.348266666667     0          
Zn1      Zn     0.568866666667     0.597800000000     0.402200000000     0          
O1       O      0.583333333333     0.583333333333     0.416666666667     0          
O2       O      0.572700000000     0.593966666667     0.378000000000     0          
C1       C      0.583333333333     0.583333333333     0.370433333333     0          
C2       C      0.583333333333     0.583333333333     0.351266666667     0          
C3       C      0.572366666667     0.594300000000     0.342300000000     0          
H1       H      0.565033333333     0.601633333333     0.348266666667     0          
Zn1      Zn     0.402200000000     0.568866666667     0.402200000000     0          
O1       O      0.416666666667     0.583333333333     0.416666666667     0          
O2       O      0.406033333333     0.572700000000     0.378000000000     0          
C1       C      0.416666666667     0.583333333333     0.370433333333     0          
C2       C      0.416666666667     0.583333333333     0.351266666667     0          
C3       C      0.405700000000     0.572366666667     0.342300000000     0          
H1       H      0.398366666667     0.565033333333     0.348266666667     0          
Zn1      Zn     0.431133333333     0.597800000000     0.597800000000     0          
O1       O      0.416666666667     0.583333333333     0.583333333333     0          
O2       O      0.427300000000     0.593966666667     0.622000000000     0          
C1       C      0.416666666667     0.583333333333     0.629566666667     0          
C2       C      0.416666666667     0.583333333333     0.648733333333     0          
C3       C      0.427633333333     0.594300000000     0.657700000000     0          
H1       H      0.434966666667     0.601633333333     0.651733333333     0          
Zn1      Zn     0.402200000000     0.431133333333     0.597800000000     0          
O1       O      0.416666666667     0.416666666667     0.583333333333     0          
O2       O      0.406033333333     0.427300000000     0.622000000000     0          
C1       C      0.416666666667     0.416666666667     0.629566666667     0          
C2       C      0.416666666667     0.416666666667     0.648733333333     0          
C3       C      0.405700000000     0.427633333333     0.657700000000     0          
H1       H      0.398366666667     0.434966666667     0.651733333333     0          
Zn1      Zn     0.568866666667     0.402200000000     0.597800000000     0          
O1       O      0.583333333333     0.416666666667     0.583333333333     0          
O2       O      0.572700000000     0.406033333333     0.622000000000     0          
C1       C      0.583333333333     0.416666666667     0.629566666667     0          
C2       C      0.583333333333     0.416666666667     0.648733333333     0          
C3       C      0.572366666667     0.405700000000     0.657700000000     0          
H1       H      0.565033333333     0.398366666667     0.651733333333     0          
Zn1      Zn     0.597800000000     0.568866666667     0.597800000000     0          
O1       O      0.583333333333     0.583333333333     0.583333333333     0          
O2       O      0.593966666667     0.572700000000     0.622000000000     0          
C1       C      0.583333333333     0.583333333333     0.629566666667     0          
C2       C      0.583333333333     0.583333333333     0.648733333333     0          
C3       C      0.594300000000     0.572366666667     0.657700000000     0          
H1       H      0.601633333333     0.565033333333     0.651733333333     0          
Zn1      Zn     0.402200000000     0.431133333333     0.402200000000     0          
O2       O      0.378000000000     0.427300000000     0.406033333333     0          
C1       C      0.370433333333     0.416666666667     0.416666666667     0          
C2       C      0.351266666667     0.416666666667     0.416666666667     0          
C3       C      0.342300000000     0.427633333333     0.405700000000     0          
H1       H      0.348266666667     0.434966666667     0.398366666667     0          
Zn1      Zn     0.568866666667     0.402200000000     0.402200000000     0          
O2       O      0.572700000000     0.378000000000     0.406033333333     0          
C1       C      0.583333333333     0.370433333333     0.416666666667     0          
C2       C      0.583333333333     0.351266666667     0.416666666667     0          
C3       C      0.572366666667     0.342300000000     0.405700000000     0          
H1       H      0.565033333333     0.348266666667     0.398366666667     0          
Zn1      Zn     0.597800000000     0.568866666667     0.402200000000     0          
O2       O      0.622000000000     0.572700000000     0.406033333333     0          
C1       C      0.629566666667     0.583333333333     0.416666666667     0          
C2       C      0.648733333333     0.583333333333     0.416666666667     0          
C3       C      0.657700000000     0.572366666667     0.405700000000     0          
H1       H      0.651733333333     0.565033333333     0.398366666667     0          
Zn1      Zn     0.431133333333     0.597800000000     0.402200000000     0          
O2       O      0.427300000000     0.622000000000     0.406033333333     0          
C1       C      0.416666666667     0.629566666667     0.416666666667     0          
C2       C      0.416666666667     0.648733333333     0.416666666667     0          
C3       C      0.427633333333     0.657700000000     0.405700000000     0          
H1       H      0.434966666667     0.651733333333     0.398366666667     0          
Zn1      Zn     0.402200000000     0.568866666667     0.597800000000     0          
O2       O      0.378000000000     0.572700000000     0.593966666667     0          
C1       C      0.370433333333     0.583333333333     0.583333333333     0          
C2       C      0.351266666667     0.583333333333     0.583333333333     0          
C3       C      0.342300000000     0.572366666667     0.594300000000     0          
H1       H      0.348266666667     0.565033333333     0.601633333333     0          
Zn1      Zn     0.431133333333     0.402200000000     0.597800000000     0          
O2       O      0.427300000000     0.378000000000     0.593966666667     0          
C1       C      0.416666666667     0.370433333333     0.583333333333     0          
C2       C      0.416666666667     0.351266666667     0.583333333333     0          
C3       C      0.427633333333     0.342300000000     0.594300000000     0          
H1       H      0.434966666667     0.348266666667     0.601633333333     0          
Zn1      Zn     0.597800000000     0.431133333333     0.597800000000     0          
O2       O      0.622000000000     0.427300000000     0.593966666667     0          
C1       C      0.629566666667     0.416666666667     0.583333333333     0          
C2       C      0.648733333333     0.416666666667     0.583333333333     0          
C3       C      0.657700000000     0.427633333333     0.594300000000     0          
H1       H      0.651733333333     0.434966666667     0.601633333333     0          
Zn1      Zn     0.568866666667     0.597800000000     0.597800000000     0          
O2       O      0.572700000000     0.622000000000     0.593966666667     0          
C1       C      0.583333333333     0.629566666667     0.583333333333     0          
C2       C      0.583333333333     0.648733333333     0.583333333333     0          
C3       C      0.572366666667     0.657700000000     0.594300000000     0          
H1       H      0.565033333333     0.651733333333     0.601633333333     0          
Zn1      Zn     0.402200000000     0.402200000000     0.431133333333     0          
O2       O      0.406033333333     0.378000000000     0.427300000000     0          
C1       C      0.416666666667     0.370433333333     0.416666666667     0          
C2       C      0.416666666667     0.351266666667     0.416666666667     0          
C3       C      0.405700000000     0.342300000000     0.427633333333     0          
H1       H      0.398366666667     0.348266666667     0.434966666667     0          
Zn1      Zn     0.402200000000     0.597800000000     0.568866666667     0          
O2       O      0.406033333333     0.622000000000     0.572700000000     0          
C1       C      0.416666666667     0.629566666667     0.583333333333     0          
C2       C      0.416666666667     0.648733333333     0.583333333333     0          
C3       C      0.405700000000     0.657700000000     0.572366666667     0          
H1       H      0.398366666667     0.651733333333     0.565033333333     0          
Zn1      Zn     0.402200000000     0.402200000000     0.568866666667     0          
O2       O      0.378000000000     0.406033333333     0.572700000000     0          
C1       C      0.370433333333     0.416666666667     0.583333333333     0          
C2       C      0.351266666667     0.416666666667     0.583333333333     0          
C3       C      0.342300000000     0.405700000000     0.572366666667     0          
H1       H      0.348266666667     0.398366666667     0.565033333333     0          
Zn1      Zn     0.597800000000     0.402200000000     0.568866666667     0          
O2       O      0.593966666667     0.378000000000     0.572700000000     0          
C1       C      0.583333333333     0.370433333333     0.583333333333     0          
C2       C      0.583333333333     0.351266666667     0.583333333333     0          
C3       C      0.594300000000     0.342300000000     0.572366666667     0          
H1       H      0.601633333333     0.348266666667     0.565033333333     0          
Zn1      Zn     0.597800000000     0.597800000000     0.568866666667     0          
O2       O      0.622000000000     0.593966666667     0.572700000000     0          
C1       C      0.629566666667     0.583333333333     0.583333333333     0          
C2       C      0.648733333333     0.583333333333     0.583333333333     0          
C3       C      0.657700000000     0.594300000000     0.572366666667     0          
H1       H      0.651733333333     0.601633333333     0.565033333333     0          
Zn1      Zn     0.597800000000     0.597800000000     0.431133333333     0          
O2       O      0.593966666667     0.622000000000     0.427300000000     0          
C1       C      0.583333333333     0.629566666667     0.416666666667     0          
C2       C      0.583333333333     0.648733333333     0.416666666667     0          
C3       C      0.594300000000     0.657700000000     0.427633333333     0          
H1       H      0.601633333333     0.651733333333     0.434966666667     0          
Zn1      Zn     0.402200000000     0.597800000000     0.431133333333     0          
O2       O      0.378000000000     0.593966666667     0.427300000000     0          
C1       C      0.370433333333     0.583333333333     0.416666666667     0          
C2       C      0.351266666667     0.583333333333     0.416666666667     0          
C3       C      0.342300000000     0.594300000000     0.427633333333     0          
H1       H      0.348266666667     0.601633333333     0.434966666667     0          
Zn1      Zn     0.597800000000     0.402200000000     0.431133333333     0          
O2       O      0.622000000000     0.406033333333     0.427300000000     0          
C1       C      0.629566666667     0.416666666667     0.416666666667     0          
C2       C      0.648733333333     0.416666666667     0.416666666667     0          
C3       C      0.657700000000     0.405700000000     0.427633333333     0          
H1       H      0.651733333333     0.398366666667     0.434966666667     0          
O2       O      0.572700000000     0.593966666667     0.622000000000     0          
C3       C      0.572366666667     0.594300000000     0.657700000000     0          
H1       H      0.565033333333     0.601633333333     0.651733333333     0          
O2       O      0.406033333333     0.572700000000     0.622000000000     0          
C3       C      0.405700000000     0.572366666667     0.657700000000     0          
H1       H      0.398366666667     0.565033333333     0.651733333333     0          
O2       O      0.427300000000     0.406033333333     0.622000000000     0          
C3       C      0.427633333333     0.405700000000     0.657700000000     0          
H1       H      0.434966666667     0.398366666667     0.651733333333     0          
O2       O      0.593966666667     0.427300000000     0.622000000000     0          
C3       C      0.594300000000     0.427633333333     0.657700000000     0          
H1       H      0.601633333333     0.434966666667     0.651733333333     0          
O2       O      0.572700000000     0.406033333333     0.378000000000     0          
C3       C      0.572366666667     0.405700000000     0.342300000000     0          
H1       H      0.565033333333     0.398366666667     0.348266666667     0          
O2       O      0.593966666667     0.572700000000     0.378000000000     0          
C3       C      0.594300000000     0.572366666667     0.342300000000     0          
H1       H      0.601633333333     0.565033333333     0.348266666667     0          
O2       O      0.427300000000     0.593966666667     0.378000000000     0          
C3       C      0.427633333333     0.594300000000     0.342300000000     0          
H1       H      0.434966666667     0.601633333333     0.348266666667     0          
O2       O      0.406033333333     0.427300000000     0.378000000000     0          
C3       C      0.405700000000     0.427633333333     0.342300000000     0          
H1       H      0.398366666667     0.434966666667     0.348266666667     0          
O2       O      0.622000000000     0.572700000000     0.593966666667     0          
C3       C      0.657700000000     0.572366666667     0.594300000000     0          
H1       H      0.651733333333     0.565033333333     0.601633333333     0          
O2       O      0.427300000000     0.622000000000     0.593966666667     0          
C3       C      0.427633333333     0.657700000000     0.594300000000     0          
H1       H      0.434966666667     0.651733333333     0.601633333333     0          
O2       O      0.378000000000     0.427300000000     0.593966666667     0          
C3       C      0.342300000000     0.427633333333     0.594300000000     0          
H1       H      0.348266666667     0.434966666667     0.601633333333     0          
O2       O      0.572700000000     0.378000000000     0.593966666667     0          
C3       C      0.572366666667     0.342300000000     0.594300000000     0          
H1       H      0.565033333333     0.348266666667     0.601633333333     0          
O2       O      0.622000000000     0.427300000000     0.406033333333     0          
C3       C      0.657700000000     0.427633333333     0.405700000000     0          
H1       H      0.651733333333     0.434966666667     0.398366666667     0          
O2       O      0.572700000000     0.622000000000     0.406033333333     0          
C3       C      0.572366666667     0.657700000000     0.405700000000     0          
H1       H      0.565033333333     0.651733333333     0.398366666667     0          
O2       O      0.378000000000     0.572700000000     0.406033333333     0          
C3       C      0.342300000000     0.572366666667     0.405700000000     0          
H1       H      0.348266666667     0.565033333333     0.398366666667     0          
O2       O      0.427300000000     0.378000000000     0.406033333333     0          
C3       C      0.427633333333     0.342300000000     0.405700000000     0          
H1       H      0.434966666667     0.348266666667     0.398366666667     0          
O2       O      0.593966666667     0.622000000000     0.572700000000     0          
C3       C      0.594300000000     0.657700000000     0.572366666667     0          
H1       H      0.601633333333     0.651733333333     0.565033333333     0          
O2       O      0.593966666667     0.378000000000     0.427300000000     0          
C3       C      0.594300000000     0.342300000000     0.427633333333     0          
H1       H      0.601633333333     0.348266666667     0.434966666667     0          
O2       O      0.622000000000     0.593966666667     0.427300000000     0          
C3       C      0.657700000000     0.594300000000     0.427633333333     0          
H1       H      0.651733333333     0.601633333333     0.434966666667     0          
O2       O      0.406033333333     0.622000000000     0.427300000000     0          
C3       C      0.405700000000     0.657700000000     0.427633333333     0          
H1       H      0.398366666667     0.651733333333     0.434966666667     0          
O2       O      0.378000000000     0.406033333333     0.427300000000     0          
C3       C      0.342300000000     0.405700000000     0.427633333333     0          
H1       H      0.348266666667     0.398366666667     0.434966666667     0          
O2       O      0.406033333333     0.378000000000     0.572700000000     0          
C3       C      0.405700000000     0.342300000000     0.572366666667     0          
H1       H      0.398366666667     0.348266666667     0.565033333333     0          
O2       O      0.622000000000     0.406033333333     0.572700000000     0          
C3       C      0.657700000000     0.405700000000     0.572366666667     0          
H1       H      0.651733333333     0.398366666667     0.565033333333     0          
O2       O      0.378000000000     0.593966666667     0.572700000000     0          
C3       C      0.342300000000     0.594300000000     0.572366666667     0          
H1       H      0.348266666667     0.601633333333     0.565033333333     0          
Zn1      Zn     0.431133333333     0.568866666667     0.568866666667     0          
O2       O      0.427300000000     0.572700000000     0.544666666667     0          
C1       C      0.416666666667     0.583333333333     0.537100000000     0          
C2       C      0.416666666667     0.583333333333     0.517933333333     0          
C3       C      0.427633333333     0.572366666667     0.508966666667     0          
H1       H      0.434966666667     0.565033333333     0.514933333333     0          
O2       O      0.593966666667     0.593966666667     0.544666666667     0          
C1       C      0.583333333333     0.583333333333     0.537100000000     0          
C2       C      0.583333333333     0.583333333333     0.517933333333     0          
C3       C      0.594300000000     0.594300000000     0.508966666667     0          
H1       H      0.601633333333     0.601633333333     0.514933333333     0          
Zn1      Zn     0.568866666667     0.431133333333     0.568866666667     0          
O2       O      0.572700000000     0.427300000000     0.544666666667     0          
C1       C      0.583333333333     0.416666666667     0.537100000000     0          
C2       C      0.583333333333     0.416666666667     0.517933333333     0          
C3       C      0.572366666667     0.427633333333     0.508966666667     0          
H1       H      0.565033333333     0.434966666667     0.514933333333     0          
O2       O      0.406033333333     0.406033333333     0.544666666667     0          
C1       C      0.416666666667     0.416666666667     0.537100000000     0          
C2       C      0.416666666667     0.416666666667     0.517933333333     0          
C3       C      0.405700000000     0.405700000000     0.508966666667     0          
H1       H      0.398366666667     0.398366666667     0.514933333333     0          
Zn1      Zn     0.431133333333     0.431133333333     0.431133333333     0          
O2       O      0.427300000000     0.427300000000     0.455333333333     0          
C1       C      0.416666666667     0.416666666667     0.462900000000     0          
C2       C      0.416666666667     0.416666666667     0.482066666667     0          
C3       C      0.427633333333     0.427633333333     0.491033333333     0          
H1       H      0.434966666667     0.434966666667     0.485066666667     0          
O2       O      0.406033333333     0.593966666667     0.455333333333     0          
C1       C      0.416666666667     0.583333333333     0.462900000000     0          
C2       C      0.416666666667     0.583333333333     0.482066666667     0          
C3       C      0.405700000000     0.594300000000     0.491033333333     0          
H1       H      0.398366666667     0.601633333333     0.485066666667     0          
Zn1      Zn     0.568866666667     0.568866666667     0.431133333333     0          
O2       O      0.572700000000     0.572700000000     0.455333333333     0          
C1       C      0.583333333333     0.583333333333     0.462900000000     0          
C2       C      0.583333333333     0.583333333333     0.482066666667     0          
C3       C      0.572366666667     0.572366666667     0.491033333333     0          
H1       H      0.565033333333     0.565033333333     0.485066666667     0          
O2       O      0.593966666667     0.406033333333     0.455333333333     0          
C1       C      0.583333333333     0.416666666667     0.462900000000     0          
C2       C      0.583333333333     0.416666666667     0.482066666667     0          
C3       C      0.594300000000     0.405700000000     0.491033333333     0          
H1       H      0.601633333333     0.398366666667     0.485066666667     0          
Zn1      Zn     0.568866666667     0.568866666667     0.568866666667     0          
O2       O      0.572700000000     0.544666666667     0.572700000000     0          
C1       C      0.583333333333     0.537100000000     0.583333333333     0          
C2       C      0.583333333333     0.517933333333     0.583333333333     0          
C3       C      0.572366666667     0.508966666667     0.572366666667     0          
H1       H      0.565033333333     0.514933333333     0.565033333333     0          
Zn1      Zn     0.431133333333     0.431133333333     0.568866666667     0          
O2       O      0.427300000000     0.455333333333     0.572700000000     0          
C1       C      0.416666666667     0.462900000000     0.583333333333     0          
C2       C      0.416666666667     0.482066666667     0.583333333333     0          
C3       C      0.427633333333     0.491033333333     0.572366666667     0          
H1       H      0.434966666667     0.485066666667     0.565033333333     0          
Zn1      Zn     0.431133333333     0.568866666667     0.431133333333     0          
O2       O      0.427300000000     0.544666666667     0.427300000000     0          
C1       C      0.416666666667     0.537100000000     0.416666666667     0          
C2       C      0.416666666667     0.517933333333     0.416666666667     0          
C3       C      0.427633333333     0.508966666667     0.427633333333     0          
H1       H      0.434966666667     0.514933333333     0.434966666667     0          
Zn1      Zn     0.568866666667     0.431133333333     0.431133333333     0          
O2       O      0.572700000000     0.455333333333     0.427300000000     0          
C1       C      0.583333333333     0.462900000000     0.416666666667     0          
C2       C      0.583333333333     0.482066666667     0.416666666667     0          
C3       C      0.572366666667     0.491033333333     0.427633333333     0          
H1       H      0.565033333333     0.485066666667     0.434966666667     0          
O2       O      0.406033333333     0.544666666667     0.593966666667     0          
C1       C      0.416666666667     0.537100000000     0.583333333333     0          
C2       C      0.416666666667     0.517933333333     0.583333333333     0          
C3       C      0.405700000000     0.508966666667     0.594300000000     0          
H1       H      0.398366666667     0.514933333333     0.601633333333     0          
O2       O      0.406033333333     0.455333333333     0.406033333333     0          
C1       C      0.416666666667     0.462900000000     0.416666666667     0          
C2       C      0.416666666667     0.482066666667     0.416666666667     0          
C3       C      0.405700000000     0.491033333333     0.405700000000     0          
H1       H      0.398366666667     0.485066666667     0.398366666667     0          
O2       O      0.593966666667     0.544666666667     0.406033333333     0          
C1       C      0.583333333333     0.537100000000     0.416666666667     0          
C2       C      0.583333333333     0.517933333333     0.416666666667     0          
C3       C      0.594300000000     0.508966666667     0.405700000000     0          
H1       H      0.601633333333     0.514933333333     0.398366666667     0          
O2       O      0.593966666667     0.455333333333     0.593966666667     0          
C1       C      0.583333333333     0.462900000000     0.583333333333     0          
C2       C      0.583333333333     0.482066666667     0.583333333333     0          
C3       C      0.594300000000     0.491033333333     0.594300000000     0          
H1       H      0.601633333333     0.485066666667     0.601633333333     0          
O2       O      0.572700000000     0.427300000000     0.455333333333     0          
C3       C      0.572366666667     0.427633333333     0.491033333333     0          
H1       H      0.565033333333     0.434966666667     0.485066666667     0          
O2       O      0.406033333333     0.406033333333     0.455333333333     0          
C3       C      0.405700000000     0.405700000000     0.491033333333     0          
H1       H      0.398366666667     0.398366666667     0.485066666667     0          
O2       O      0.427300000000     0.572700000000     0.455333333333     0          
C3       C      0.427633333333     0.572366666667     0.491033333333     0          
H1       H      0.434966666667     0.565033333333     0.485066666667     0          
O2       O      0.593966666667     0.593966666667     0.455333333333     0          
C3       C      0.594300000000     0.594300000000     0.491033333333     0          
H1       H      0.601633333333     0.601633333333     0.485066666667     0          
O2       O      0.572700000000     0.572700000000     0.544666666667     0          
C3       C      0.572366666667     0.572366666667     0.508966666667     0          
H1       H      0.565033333333     0.565033333333     0.514933333333     0          
O2       O      0.593966666667     0.406033333333     0.544666666667     0          
C3       C      0.594300000000     0.405700000000     0.508966666667     0          
H1       H      0.601633333333     0.398366666667     0.514933333333     0          
O2       O      0.427300000000     0.427300000000     0.544666666667     0          
C3       C      0.427633333333     0.427633333333     0.508966666667     0          
H1       H      0.434966666667     0.434966666667     0.514933333333     0          
O2       O      0.406033333333     0.593966666667     0.544666666667     0          
C3       C      0.405700000000     0.594300000000     0.508966666667     0          
H1       H      0.398366666667     0.601633333333     0.514933333333     0          
O2       O      0.427300000000     0.455333333333     0.427300000000     0          
C3       C      0.427633333333     0.491033333333     0.427633333333     0          
H1       H      0.434966666667     0.485066666667     0.434966666667     0          
O2       O      0.572700000000     0.544666666667     0.427300000000     0          
C3       C      0.572366666667     0.508966666667     0.427633333333     0          
H1       H      0.565033333333     0.514933333333     0.434966666667     0          
O2       O      0.572700000000     0.455333333333     0.572700000000     0          
C3       C      0.572366666667     0.491033333333     0.572366666667     0          
H1       H      0.565033333333     0.485066666667     0.565033333333     0          
O2       O      0.427300000000     0.544666666667     0.572700000000     0          
C3       C      0.427633333333     0.508966666667     0.572366666667     0          
H1       H      0.434966666667     0.514933333333     0.565033333333     0          
O2       O      0.593966666667     0.455333333333     0.406033333333     0          
C3       C      0.594300000000     0.491033333333     0.405700000000     0          
H1       H      0.601633333333     0.485066666667     0.398366666667     0          
O2       O      0.593966666667     0.544666666667     0.593966666667     0          
C3       C      0.594300000000     0.508966666667     0.594300000000     0          
H1       H      0.601633333333     0.514933333333     0.601633333333     0          
O2       O      0.406033333333     0.455333333333     0.593966666667     0          
C3       C      0.405700000000     0.491033333333     0.594300000000     0          
H1       H      0.398366666667     0.485066666667     0.601633333333     0          
O2       O      0.406033333333     0.544666666667     0.406033333333     0          
C3       C      0.405700000000     0.508966666667     0.405700000000     0          
H1       H      0.398366666667     0.514933333333     0.398366666667     0          
O2       O      0.544666666667     0.427300000000     0.572700000000     0          
C1       C      0.537100000000     0.416666666667     0.583333333333     0          
C2       C      0.517933333333     0.416666666667     0.583333333333     0          
C3       C      0.508966666667     0.427633333333     0.572366666667     0          
H1       H      0.514933333333     0.434966666667     0.565033333333     0          
O2       O      0.455333333333     0.572700000000     0.572700000000     0          
C1       C      0.462900000000     0.583333333333     0.583333333333     0          
C2       C      0.482066666667     0.583333333333     0.583333333333     0          
C3       C      0.491033333333     0.572366666667     0.572366666667     0          
H1       H      0.485066666667     0.565033333333     0.565033333333     0          
O2       O      0.544666666667     0.572700000000     0.427300000000     0          
C1       C      0.537100000000     0.583333333333     0.416666666667     0          
C2       C      0.517933333333     0.583333333333     0.416666666667     0          
C3       C      0.508966666667     0.572366666667     0.427633333333     0          
H1       H      0.514933333333     0.565033333333     0.434966666667     0          
O2       O      0.455333333333     0.427300000000     0.427300000000     0          
C1       C      0.462900000000     0.416666666667     0.416666666667     0          
C2       C      0.482066666667     0.416666666667     0.416666666667     0          
C3       C      0.491033333333     0.427633333333     0.427633333333     0          
H1       H      0.485066666667     0.434966666667     0.434966666667     0          
O2       O      0.544666666667     0.406033333333     0.406033333333     0          
C1       C      0.537100000000     0.416666666667     0.416666666667     0          
C2       C      0.517933333333     0.416666666667     0.416666666667     0          
C3       C      0.508966666667     0.405700000000     0.405700000000     0          
H1       H      0.514933333333     0.398366666667     0.398366666667     0          
O2       O      0.455333333333     0.593966666667     0.406033333333     0          
C1       C      0.462900000000     0.583333333333     0.416666666667     0          
C2       C      0.482066666667     0.583333333333     0.416666666667     0          
C3       C      0.491033333333     0.594300000000     0.405700000000     0          
H1       H      0.485066666667     0.601633333333     0.398366666667     0          
O2       O      0.544666666667     0.593966666667     0.593966666667     0          
C1       C      0.537100000000     0.583333333333     0.583333333333     0          
C2       C      0.517933333333     0.583333333333     0.583333333333     0          
C3       C      0.508966666667     0.594300000000     0.594300000000     0          
H1       H      0.514933333333     0.601633333333     0.601633333333     0          
O2       O      0.455333333333     0.406033333333     0.593966666667     0          
C1       C      0.462900000000     0.416666666667     0.583333333333     0          
C2       C      0.482066666667     0.416666666667     0.583333333333     0          
C3       C      0.491033333333     0.405700000000     0.594300000000     0          
H1       H      0.485066666667     0.398366666667     0.601633333333     0          
O2       O      0.455333333333     0.572700000000     0.427300000000     0          
C3       C      0.491033333333     0.572366666667     0.427633333333     0          
H1       H      0.485066666667     0.565033333333     0.434966666667     0          
O2       O      0.544666666667     0.427300000000     0.427300000000     0          
C3       C      0.508966666667     0.427633333333     0.427633333333     0          
H1       H      0.514933333333     0.434966666667     0.434966666667     0          
O2       O      0.455333333333     0.427300000000     0.572700000000     0          
C3       C      0.491033333333     0.427633333333     0.572366666667     0          
H1       H      0.485066666667     0.434966666667     0.565033333333     0          
O2       O      0.544666666667     0.572700000000     0.572700000000     0          
C3       C      0.508966666667     0.572366666667     0.572366666667     0          
H1       H      0.514933333333     0.565033333333     0.565033333333     0          
O2       O      0.455333333333     0.593966666667     0.593966666667     0          
C3       C      0.491033333333     0.594300000000     0.594300000000     0          
H1       H      0.485066666667     0.601633333333     0.601633333333     0          
O2       O      0.544666666667     0.406033333333     0.593966666667     0          
C3       C      0.508966666667     0.405700000000     0.594300000000     0          
H1       H      0.514933333333     0.398366666667     0.601633333333     0          
O2       O      0.455333333333     0.406033333333     0.406033333333     0          
C3       C      0.491033333333     0.405700000000     0.405700000000     0          
H1       H      0.485066666667     0.398366666667     0.398366666667     0          
O2       O      0.544666666667     0.593966666667     0.406033333333     0          
C3       C      0.508966666667     0.594300000000     0.405700000000     0          
H1       H      0.514933333333     0.601633333333     0.398366666667     0          
Zn1      Zn     0.431133333333     0.402200000000     0.735533333333     0          
O1       O      0.416666666667     0.416666666667     0.750000000000     0          
O2       O      0.427300000000     0.406033333333     0.711333333333     0          
C1       C      0.416666666667     0.416666666667     0.703766666667     0          
C2       C      0.416666666667     0.416666666667     0.684600000000     0          
C3       C      0.427633333333     0.405700000000     0.675633333333     0          
H1       H      0.434966666667     0.398366666667     0.681600000000     0          
Zn1      Zn     0.597800000000     0.431133333333     0.735533333333     0          
O1       O      0.583333333333     0.416666666667     0.750000000000     0          
O2       O      0.593966666667     0.427300000000     0.711333333333     0          
C1       C      0.583333333333     0.416666666667     0.703766666667     0          
C2       C      0.583333333333     0.416666666667     0.684600000000     0          
C3       C      0.594300000000     0.427633333333     0.675633333333     0          
H1       H      0.601633333333     0.434966666667     0.681600000000     0          
Zn1      Zn     0.568866666667     0.597800000000     0.735533333333     0          
O1       O      0.583333333333     0.583333333333     0.750000000000     0          
O2       O      0.572700000000     0.593966666667     0.711333333333     0          
C1       C      0.583333333333     0.583333333333     0.703766666667     0          
C2       C      0.583333333333     0.583333333333     0.684600000000     0          
C3       C      0.572366666667     0.594300000000     0.675633333333     0          
H1       H      0.565033333333     0.601633333333     0.681600000000     0          
Zn1      Zn     0.402200000000     0.568866666667     0.735533333333     0          
O1       O      0.416666666667     0.583333333333     0.750000000000     0          
O2       O      0.406033333333     0.572700000000     0.711333333333     0          
C1       C      0.416666666667     0.583333333333     0.703766666667     0          
C2       C      0.416666666667     0.583333333333     0.684600000000     0          
C3       C      0.405700000000     0.572366666667     0.675633333333     0          
H1       H      0.398366666667     0.565033333333     0.681600000000     0          
Zn1      Zn     0.431133333333     0.597800000000     0.931133333333     0          
O1       O      0.416666666667     0.583333333333     0.916666666667     0          
O2       O      0.427300000000     0.593966666667     0.955333333333     0          
C1       C      0.416666666667     0.583333333333     0.962900000000     0          
C2       C      0.416666666667     0.583333333333     0.982066666667     0          
C3       C      0.427633333333     0.594300000000     0.991033333333     0          
H1       H      0.434966666667     0.601633333333     0.985066666667     0          
Zn1      Zn     0.402200000000     0.431133333333     0.931133333333     0          
O1       O      0.416666666667     0.416666666667     0.916666666667     0          
O2       O      0.406033333333     0.427300000000     0.955333333333     0          
C1       C      0.416666666667     0.416666666667     0.962900000000     0          
C2       C      0.416666666667     0.416666666667     0.982066666667     0          
C3       C      0.405700000000     0.427633333333     0.991033333333     0          
H1       H      0.398366666667     0.434966666667     0.985066666667     0          
Zn1      Zn     0.568866666667     0.402200000000     0.931133333333     0          
O1       O      0.583333333333     0.416666666667     0.916666666667     0          
O2       O      0.572700000000     0.406033333333     0.955333333333     0          
C1       C      0.583333333333     0.416666666667     0.962900000000     0          
C2       C      0.583333333333     0.416666666667     0.982066666667     0          
C3       C      0.572366666667     0.405700000000     0.991033333333     0          
H1       H      0.565033333333     0.398366666667     0.985066666667     0          
Zn1      Zn     0.597800000000     0.568866666667     0.931133333333     0          
O1       O      0.583333333333     0.583333333333     0.916666666667     0          
O2       O      0.593966666667     0.572700000000     0.955333333333     0          
C1       C      0.583333333333     0.583333333333     0.962900000000     0          
C2       C      0.583333333333     0.583333333333     0.982066666667     0          
C3       C      0.594300000000     0.572366666667     0.991033333333     0          
H1       H      0.601633333333     0.565033333333     0.985066666667     0          
Zn1      Zn     0.402200000000     0.431133333333     0.735533333333     0          
O2       O      0.378000000000     0.427300000000     0.739366666667     0          
C1       C      0.370433333333     0.416666666667     0.750000000000     0          
C2       C      0.351266666667     0.416666666667     0.750000000000     0          
C3       C      0.342300000000     0.427633333333     0.739033333333     0          
H1       H      0.348266666667     0.434966666667     0.731700000000     0          
Zn1      Zn     0.568866666667     0.402200000000     0.735533333333     0          
O2       O      0.572700000000     0.378000000000     0.739366666667     0          
C1       C      0.583333333333     0.370433333333     0.750000000000     0          
C2       C      0.583333333333     0.351266666667     0.750000000000     0          
C3       C      0.572366666667     0.342300000000     0.739033333333     0          
H1       H      0.565033333333     0.348266666667     0.731700000000     0          
Zn1      Zn     0.597800000000     0.568866666667     0.735533333333     0          
O2       O      0.622000000000     0.572700000000     0.739366666667     0          
C1       C      0.629566666667     0.583333333333     0.750000000000     0          
C2       C      0.648733333333     0.583333333333     0.750000000000     0          
C3       C      0.657700000000     0.572366666667     0.739033333333     0          
H1       H      0.651733333333     0.565033333333     0.731700000000     0          
Zn1      Zn     0.431133333333     0.597800000000     0.735533333333     0          
O2       O      0.427300000000     0.622000000000     0.739366666667     0          
C1       C      0.416666666667     0.629566666667     0.750000000000     0          
C2       C      0.416666666667     0.648733333333     0.750000000000     0          
C3       C      0.427633333333     0.657700000000     0.739033333333     0          
H1       H      0.434966666667     0.651733333333     0.731700000000     0          
Zn1      Zn     0.402200000000     0.568866666667     0.931133333333     0          
O2       O      0.378000000000     0.572700000000     0.927300000000     0          
C1       C      0.370433333333     0.583333333333     0.916666666667     0          
C2       C      0.351266666667     0.583333333333     0.916666666667     0          
C3       C      0.342300000000     0.572366666667     0.927633333333     0          
H1       H      0.348266666667     0.565033333333     0.934966666667     0          
Zn1      Zn     0.431133333333     0.402200000000     0.931133333333     0          
O2       O      0.427300000000     0.378000000000     0.927300000000     0          
C1       C      0.416666666667     0.370433333333     0.916666666667     0          
C2       C      0.416666666667     0.351266666667     0.916666666667     0          
C3       C      0.427633333333     0.342300000000     0.927633333333     0          
H1       H      0.434966666667     0.348266666667     0.934966666667     0          
Zn1      Zn     0.597800000000     0.431133333333     0.931133333333     0          
O2       O      0.622000000000     0.427300000000     0.927300000000     0          
C1       C      0.629566666667     0.416666666667     0.916666666667     0          
C2       C      0.648733333333     0.416666666667     0.916666666667     0          
C3       C      0.657700000000     0.427633333333     0.927633333333     0          
H1       H      0.651733333333     0.434966666667     0.934966666667     0          
Zn1      Zn     0.568866666667     0.597800000000     0.931133333333     0          
O2       O      0.572700000000     0.622000000000     0.927300000000     0          
C1       C      0.583333333333     0.629566666667     0.916666666667     0          
C2       C      0.583333333333     0.648733333333     0.916666666667     0          
C3       C      0.572366666667     0.657700000000     0.927633333333     0          
H1       H      0.565033333333     0.651733333333     0.934966666667     0          
Zn1      Zn     0.402200000000     0.402200000000     0.764466666667     0          
O2       O      0.406033333333     0.378000000000     0.760633333333     0          
C1       C      0.416666666667     0.370433333333     0.750000000000     0          
C2       C      0.416666666667     0.351266666667     0.750000000000     0          
C3       C      0.405700000000     0.342300000000     0.760966666667     0          
H1       H      0.398366666667     0.348266666667     0.768300000000     0          
Zn1      Zn     0.402200000000     0.597800000000     0.902200000000     0          
O2       O      0.406033333333     0.622000000000     0.906033333333     0          
C1       C      0.416666666667     0.629566666667     0.916666666667     0          
C2       C      0.416666666667     0.648733333333     0.916666666667     0          
C3       C      0.405700000000     0.657700000000     0.905700000000     0          
H1       H      0.398366666667     0.651733333333     0.898366666667     0          
Zn1      Zn     0.402200000000     0.402200000000     0.902200000000     0          
O2       O      0.378000000000     0.406033333333     0.906033333333     0          
C1       C      0.370433333333     0.416666666667     0.916666666667     0          
C2       C      0.351266666667     0.416666666667     0.916666666667     0          
C3       C      0.342300000000     0.405700000000     0.905700000000     0          
H1       H      0.348266666667     0.398366666667     0.898366666667     0          
Zn1      Zn     0.597800000000     0.402200000000     0.902200000000     0          
O2       O      0.593966666667     0.378000000000     0.906033333333     0          
C1       C      0.583333333333     0.370433333333     0.916666666667     0          
C2       C      0.583333333333     0.351266666667     0.916666666667     0          
C3       C      0.594300000000     0.342300000000     0.905700000000     0          
H1       H      0.601633333333     0.348266666667     0.898366666667     0          
Zn1      Zn     0.597800000000     0.597800000000     0.902200000000     0          
O2       O      0.622000000000     0.593966666667     0.906033333333     0          
C1       C      0.629566666667     0.583333333333     0.916666666667     0          
C2       C      0.648733333333     0.583333333333     0.916666666667     0          
C3       C      0.657700000000     0.594300000000     0.905700000000     0          
H1       H      0.651733333333     0.601633333333     0.898366666667     0          
Zn1      Zn     0.597800000000     0.597800000000     0.764466666667     0          
O2       O      0.593966666667     0.622000000000     0.760633333333     0          
C1       C      0.583333333333     0.629566666667     0.750000000000     0          
C2       C      0.583333333333     0.648733333333     0.750000000000     0          
C3       C      0.594300000000     0.657700000000     0.760966666667     0          
H1       H      0.601633333333     0.651733333333     0.768300000000     0          
Zn1      Zn     0.402200000000     0.597800000000     0.764466666667     0          
O2       O      0.378000000000     0.593966666667     0.760633333333     0          
C1       C      0.370433333333     0.583333333333     0.750000000000     0          
C2       C      0.351266666667     0.583333333333     0.750000000000     0          
C3       C      0.342300000000     0.594300000000     0.760966666667     0          
H1       H      0.348266666667     0.601633333333     0.768300000000     0          
Zn1      Zn     0.597800000000     0.402200000000     0.764466666667     0          
O2       O      0.622000000000     0.406033333333     0.760633333333     0          
C1       C      0.629566666667     0.416666666667     0.750000000000     0          
C2       C      0.648733333333     0.416666666667     0.750000000000     0          
C3       C      0.657700000000     0.405700000000     0.760966666667     0          
H1       H      0.651733333333     0.398366666667     0.768300000000     0          
O2       O      0.572700000000     0.593966666667     0.955333333333     0          
C3       C      0.572366666667     0.594300000000     0.991033333333     0          
H1       H      0.565033333333     0.601633333333     0.985066666667     0          
O2       O      0.406033333333     0.572700000000     0.955333333333     0          
C3       C      0.405700000000     0.572366666667     0.991033333333     0          
H1       H      0.398366666667     0.565033333333     0.985066666667     0          
O2       O      0.427300000000     0.406033333333     0.955333333333     0          
C3       C      0.427633333333     0.405700000000     0.991033333333     0          
H1       H      0.434966666667     0.398366666667     0.985066666667     0          
O2       O      0.593966666667     0.427300000000     0.955333333333     0          
C3       C      0.594300000000     0.427633333333     0.991033333333     0          
H1       H      0.601633333333     0.434966666667     0.985066666667     0          
O2       O      0.572700000000     0.406033333333     0.711333333333     0          
C3       C      0.572366666667     0.405700000000     0.675633333333     0          
H1       H      0.565033333333     0.398366666667     0.681600000000     0          
O2       O      0.593966666667     0.572700000000     0.711333333333     0          
C3       C      0.594300000000     0.572366666667     0.675633333333     0          
H1       H      0.601633333333     0.565033333333     0.681600000000     0          
O2       O      0.427300000000     0.593966666667     0.711333333333     0          
C3       C      0.427633333333     0.594300000000     0.675633333333     0          
H1       H      0.434966666667     0.601633333333     0.681600000000     0          
O2       O      0.406033333333     0.427300000000     0.711333333333     0          
C3       C      0.405700000000     0.427633333333     0.675633333333     0          
H1       H      0.398366666667     0.434966666667     0.681600000000     0          
O2       O      0.622000000000     0.572700000000     0.927300000000     0          
C3       C      0.657700000000     0.572366666667     0.927633333333     0          
H1       H      0.651733333333     0.565033333333     0.934966666667     0          
O2       O      0.427300000000     0.622000000000     0.927300000000     0          
C3       C      0.427633333333     0.657700000000     0.927633333333     0          
H1       H      0.434966666667     0.651733333333     0.934966666667     0          
O2       O      0.378000000000     0.427300000000     0.927300000000     0          
C3       C      0.342300000000     0.427633333333     0.927633333333     0          
H1       H      0.348266666667     0.434966666667     0.934966666667     0          
O2       O      0.572700000000     0.378000000000     0.927300000000     0          
C3       C      0.572366666667     0.342300000000     0.927633333333     0          
H1       H      0.565033333333     0.348266666667     0.934966666667     0          
O2       O      0.622000000000     0.427300000000     0.739366666667     0          
C3       C      0.657700000000     0.427633333333     0.739033333333     0          
H1       H      0.651733333333     0.434966666667     0.731700000000     0          
O2       O      0.572700000000     0.622000000000     0.739366666667     0          
C3       C      0.572366666667     0.657700000000     0.739033333333     0          
H1       H      0.565033333333     0.651733333333     0.731700000000     0          
O2       O      0.378000000000     0.572700000000     0.739366666667     0          
C3       C      0.342300000000     0.572366666667     0.739033333333     0          
H1       H      0.348266666667     0.565033333333     0.731700000000     0          
O2       O      0.427300000000     0.378000000000     0.739366666667     0          
C3       C      0.427633333333     0.342300000000     0.739033333333     0          
H1       H      0.434966666667     0.348266666667     0.731700000000     0          
O2       O      0.593966666667     0.622000000000     0.906033333333     0          
C3       C      0.594300000000     0.657700000000     0.905700000000     0          
H1       H      0.601633333333     0.651733333333     0.898366666667     0          
O2       O      0.593966666667     0.378000000000     0.760633333333     0          
C3       C      0.594300000000     0.342300000000     0.760966666667     0          
H1       H      0.601633333333     0.348266666667     0.768300000000     0          
O2       O      0.622000000000     0.593966666667     0.760633333333     0          
C3       C      0.657700000000     0.594300000000     0.760966666667     0          
H1       H      0.651733333333     0.601633333333     0.768300000000     0          
O2       O      0.406033333333     0.622000000000     0.760633333333     0          
C3       C      0.405700000000     0.657700000000     0.760966666667     0          
H1       H      0.398366666667     0.651733333333     0.768300000000     0          
O2       O      0.378000000000     0.406033333333     0.760633333333     0          
C3       C      0.342300000000     0.405700000000     0.760966666667     0          
H1       H      0.348266666667     0.398366666667     0.768300000000     0          
O2       O      0.406033333333     0.378000000000     0.906033333333     0          
C3       C      0.405700000000     0.342300000000     0.905700000000     0          
H1       H      0.398366666667     0.348266666667     0.898366666667     0          
O2       O      0.622000000000     0.406033333333     0.906033333333     0          
C3       C      0.657700000000     0.405700000000     0.905700000000     0          
H1       H      0.651733333333     0.398366666667     0.898366666667     0          
O2       O      0.378000000000     0.593966666667     0.906033333333     0          
C3       C      0.342300000000     0.594300000000     0.905700000000     0          
H1       H      0.348266666667     0.601633333333     0.898366666667     0          
Zn1      Zn     0.431133333333     0.568866666667     0.902200000000     0          
O2       O      0.427300000000     0.572700000000     0.878000000000     0          
C1       C      0.416666666667     0.583333333333     0.870433333333     0          
C2       C      0.416666666667     0.583333333333     0.851266666667     0          
C3       C      0.427633333333     0.572366666667     0.842300000000     0          
H1       H      0.434966666667     0.565033333333     0.848266666667     0          
O2       O      0.593966666667     0.593966666667     0.878000000000     0          
C1       C      0.583333333333     0.583333333333     0.870433333333     0          
C2       C      0.583333333333     0.583333333333     0.851266666667     0          
C3       C      0.594300000000     0.594300000000     0.842300000000     0          
H1       H      0.601633333333     0.601633333333     0.848266666667     0          
Zn1      Zn     0.568866666667     0.431133333333     0.902200000000     0          
O2       O      0.572700000000     0.427300000000     0.878000000000     0          
C1       C      0.583333333333     0.416666666667     0.870433333333     0          
C2       C      0.583333333333     0.416666666667     0.851266666667     0          
C3       C      0.572366666667     0.427633333333     0.842300000000     0          
H1       H      0.565033333333     0.434966666667     0.848266666667     0          
O2       O      0.406033333333     0.406033333333     0.878000000000     0          
C1       C      0.416666666667     0.416666666667     0.870433333333     0          
C2       C      0.416666666667     0.416666666667     0.851266666667     0          
C3       C      0.405700000000     0.405700000000     0.842300000000     0          
H1       H      0.398366666667     0.398366666667     0.848266666667     0          
Zn1      Zn     0.431133333333     0.431133333333     0.764466666667     0          
O2       O      0.427300000000     0.427300000000     0.788666666667     0          
C1       C      0.416666666667     0.416666666667     0.796233333333     0          
C2       C      0.416666666667     0.416666666667     0.815400000000     0          
C3       C      0.427633333333     0.427633333333     0.824366666667     0          
H1       H      0.434966666667     0.434966666667     0.818400000000     0          
O2       O      0.406033333333     0.593966666667     0.788666666667     0          
C1       C      0.416666666667     0.583333333333     0.796233333333     0          
C2       C      0.416666666667     0.583333333333     0.815400000000     0          
C3       C      0.405700000000     0.594300000000     0.824366666667     0          
H1       H      0.398366666667     0.601633333333     0.818400000000     0          
Zn1      Zn     0.568866666667     0.568866666667     0.764466666667     0          
O2       O      0.572700000000     0.572700000000     0.788666666667     0          
C1       C      0.583333333333     0.583333333333     0.796233333333     0          
C2       C      0.583333333333     0.583333333333     0.815400000000     0          
C3       C      0.572366666667     0.572366666667     0.824366666667     0          
H1       H      0.565033333333     0.565033333333     0.818400000000     0          
O2       O      0.593966666667     0.406033333333     0.788666666667     0          
C1       C      0.583333333333     0.416666666667     0.796233333333     0          
C2       C      0.583333333333     0.416666666667     0.815400000000     0          
C3       C      0.594300000000     0.405700000000     0.824366666667     0          
H1       H      0.601633333333     0.398366666667     0.818400000000     0          
Zn1      Zn     0.568866666667     0.568866666667     0.902200000000     0          
O2       O      0.572700000000     0.544666666667     0.906033333333     0          
C1       C      0.583333333333     0.537100000000     0.916666666667     0          
C2       C      0.583333333333     0.517933333333     0.916666666667     0          
C3       C      0.572366666667     0.508966666667     0.905700000000     0          
H1       H      0.565033333333     0.514933333333     0.898366666667     0          
Zn1      Zn     0.431133333333     0.431133333333     0.902200000000     0          
O2       O      0.427300000000     0.455333333333     0.906033333333     0          
C1       C      0.416666666667     0.462900000000     0.916666666667     0          
C2       C      0.416666666667     0.482066666667     0.916666666667     0          
C3       C      0.427633333333     0.491033333333     0.905700000000     0          
H1       H      0.434966666667     0.485066666667     0.898366666667     0          
Zn1      Zn     0.431133333333     0.568866666667     0.764466666667     0          
O2       O      0.427300000000     0.544666666667     0.760633333333     0          
C1       C      0.416666666667     0.537100000000     0.750000000000     0          
C2       C      0.416666666667     0.517933333333     0.750000000000     0          
C3       C      0.427633333333     0.508966666667     0.760966666667     0          
H1       H      0.434966666667     0.514933333333     0.768300000000     0          
Zn1      Zn     0.568866666667     0.431133333333     0.764466666667     0          
O2       O      0.572700000000     0.455333333333     0.760633333333     0          
C1       C      0.583333333333     0.462900000000     0.750000000000     0          
C2       C      0.583333333333     0.482066666667     0.750000000000     0          
C3       C      0.572366666667     0.491033333333     0.760966666667     0          
H1       H      0.565033333333     0.485066666667     0.768300000000     0          
O2       O      0.406033333333     0.544666666667     0.927300000000     0          
C1       C      0.416666666667     0.537100000000     0.916666666667     0          
C2       C      0.416666666667     0.517933333333     0.916666666667     0          
C3       C      0.405700000000     0.508966666667     0.927633333333     0          
H1       H      0.398366666667     0.514933333333     0.934966666667     0          
O2       O      0.406033333333     0.455333333333     0.739366666667     0          
C1       C      0.416666666667     0.462900000000     0.750000000000     0          
C2       C      0.416666666667     0.482066666667     0.750000000000     0          
C3       C      0.405700000000     0.491033333333     0.739033333333     0          
H1       H      0.398366666667     0.485066666667     0.731700000000     0          
O2       O      0.593966666667     0.544666666667     0.739366666667     0          
C1       C      0.583333333333     0.537100000000     0.750000000000     0          
C2       C      0.583333333333     0.517933333333     0.750000000000     0          
C3       C      0.594300000000     0.508966666667     0.739033333333     0          
H1       H      0.601633333333     0.514933333333     0.731700000000     0          
O2       O      0.593966666667     0.455333333333     0.927300000000     0          
C1       C      0.583333333333     0.462900000000     0.916666666667     0          
C2       C      0.583333333333     0.482066666667     0.916666666667     0          
C3       C      0.594300000000     0.491033333333     0.927633333333     0          
H1       H      0.601633333333     0.485066666667     0.934966666667     0          
O2       O      0.572700000000     0.427300000000     0.788666666667     0          
C3       C      0.572366666667     0.427633333333     0.824366666667     0          
H1       H      0.565033333333     0.434966666667     0.818400000000     0          
O2       O      0.406033333333     0.406033333333     0.788666666667     0          
C3       C      0.405700000000     0.405700000000     0.824366666667     0          
H1       H      0.398366666667     0.398366666667     0.818400000000     0          
O2       O      0.427300000000     0.572700000000     0.788666666667     0          
C3       C      0.427633333333     0.572366666667     0.824366666667     0          
H1       H      0.434966666667     0.565033333333     0.818400000000     0          
O2       O      0.593966666667     0.593966666667     0.788666666667     0          
C3       C      0.594300000000     0.594300000000     0.824366666667     0          
H1       H      0.601633333333     0.601633333333     0.818400000000     0          
O2       O      0.572700000000     0.572700000000     0.878000000000     0          
C3       C      0.572366666667     0.572366666667     0.842300000000     0          
H1       H      0.565033333333     0.565033333333     0.848266666667     0          
O2       O      0.593966666667     0.406033333333     0.878000000000     0          
C3       C      0.594300000000     0.405700000000     0.842300000000     0          
H1       H      0.601633333333     0.398366666667     0.848266666667     0          
O2       O      0.427300000000     0.427300000000     0.878000000000     0          
C3       C      0.427633333333     0.427633333333     0.842300000000     0          
H1       H      0.434966666667     0.434966666667     0.848266666667     0          
O2       O      0.406033333333     0.593966666667     0.878000000000     0          
C3       C      0.405700000000     0.594300000000     0.842300000000     0          
H1       H      0.398366666667     0.601633333333     0.848266666667     0          
O2       O      0.427300000000     0.455333333333     0.760633333333     0          
C3       C      0.427633333333     0.491033333333     0.760966666667     0          
H1       H      0.434966666667     0.485066666667     0.768300000000     0          
O2       O      0.572700000000     0.544666666667     0.760633333333     0          
C3       C      0.572366666667     0.508966666667     0.760966666667     0          
H1       H      0.565033333333     0.514933333333     0.768300000000     0          
O2       O      0.572700000000     0.455333333333     0.906033333333     0          
C3       C      0.572366666667     0.491033333333     0.905700000000     0          
H1       H      0.565033333333     0.485066666667     0.898366666667     0          
O2       O      0.427300000000     0.544666666667     0.906033333333     0          
C3       C      0.427633333333     0.508966666667     0.905700000000     0          
H1       H      0.434966666667     0.514933333333     0.898366666667     0          
O2       O      0.593966666667     0.455333333333     0.739366666667     0          
C3       C      0.594300000000     0.491033333333     0.739033333333     0          
H1       H      0.601633333333     0.485066666667     0.731700000000     0          
O2       O      0.593966666667     0.544666666667     0.927300000000     0          
C3       C      0.594300000000     0.508966666667     0.927633333333     0          
H1       H      0.601633333333     0.514933333333     0.934966666667     0          
O2       O      0.406033333333     0.455333333333     0.927300000000     0          
C3       C      0.405700000000     0.491033333333     0.927633333333     0          
H1       H      0.398366666667     0.485066666667     0.934966666667     0          
O2       O      0.406033333333     0.544666666667     0.739366666667     0          
C3       C      0.405700000000     0.508966666667     0.739033333333     0          
H1       H      0.398366666667     0.514933333333     0.731700000000     0          
O2       O      0.544666666667     0.427300000000     0.906033333333     0          
C1       C      0.537100000000     0.416666666667     0.916666666667     0          
C2       C      0.517933333333     0.416666666667     0.916666666667     0          
C3       C      0.508966666667     0.427633333333     0.905700000000     0          
H1       H      0.514933333333     0.434966666667     0.898366666667     0          
O2       O      0.455333333333     0.572700000000     0.906033333333     0          
C1       C      0.462900000000     0.583333333333     0.916666666667     0          
C2       C      0.482066666667     0.583333333333     0.916666666667     0          
C3       C      0.491033333333     0.572366666667     0.905700000000     0          
H1       H      0.485066666667     0.565033333333     0.898366666667     0          
O2       O      0.544666666667     0.572700000000     0.760633333333     0          
C1       C      0.537100000000     0.583333333333     0.750000000000     0          
C2       C      0.517933333333     0.583333333333     0.750000000000     0          
C3       C      0.508966666667     0.572366666667     0.760966666667     0          
H1       H      0.514933333333     0.565033333333     0.768300000000     0          
O2       O      0.455333333333     0.427300000000     0.760633333333     0          
C1       C      0.462900000000     0.416666666667     0.750000000000     0          
C2       C      0.482066666667     0.416666666667     0.750000000000     0          
C3       C      0.491033333333     0.427633333333     0.760966666667     0          
H1       H      0.485066666667     0.434966666667     0.768300000000     0          
O2       O      0.544666666667     0.406033333333     0.739366666667     0          
C1       C      0.537100000000     0.416666666667     0.750000000000     0          
C2       C      0.517933333333     0.416666666667     0.750000000000     0          
C3       C      0.508966666667     0.405700000000     0.739033333333     0          
H1       H      0.514933333333     0.398366666667     0.731700000000     0          
O2       O      0.455333333333     0.593966666667     0.739366666667     0          
C1       C      0.462900000000     0.583333333333     0.750000000000     0          
C2       C      0.482066666667     0.583333333333     0.750000000000     0          
C3       C      0.491033333333     0.594300000000     0.739033333333     0          
H1       H      0.485066666667     0.601633333333     0.731700000000     0          
O2       O      0.544666666667     0.593966666667     0.927300000000     0          
C1       C      0.537100000000     0.583333333333     0.916666666667     0          
C2       C      0.517933333333     0.583333333333     0.916666666667     0          
C3       C      0.508966666667     0.594300000000     0.927633333333     0          
H1       H      0.514933333333     0.601633333333     0.934966666667     0          
O2       O      0.455333333333     0.406033333333     0.927300000000     0          
C1       C      0.462900000000     0.416666666667     0.916666666667     0          
C2       C      0.482066666667     0.416666666667     0.916666666667     0          
C3       C      0.491033333333     0.405700000000     0.927633333333     0          
H1       H      0.485066666667     0.398366666667     0.934966666667     0          
O2       O      0.455333333333     0.572700000000     0.760633333333     0          
C3       C      0.491033333333     0.572366666667     0.760966666667     0          
H1       H      0.485066666667     0.565033333333     0.768300000000     0          
O2       O      0.544666666667     0.427300000000     0.760633333333     0          
C3       C      0.508966666667     0.427633333333     0.760966666667     0          
H1       H      0.514933333333     0.434966666667     0.768300000000     0          
O2       O      0.455333333333     0.427300000000     0.906033333333     0          
C3       C      0.491033333333     0.427633333333     0.905700000000     0          
H1       H      0.485066666667     0.434966666667     0.898366666667     0          
O2       O      0.544666666667     0.572700000000     0.906033333333     0          
C3       C      0.508966666667     0.572366666667     0.905700000000     0          
H1       H      0.514933333333     0.565033333333     0.898366666667     0          
O2       O      0.455333333333     0.593966666667     0.927300000000     0          
C3       C      0.491033333333     0.594300000000     0.927633333333     0          
H1       H      0.485066666667     0.601633333333     0.934966666667     0          
O2       O      0.544666666667     0.406033333333     0.927300000000     0          
C3       C      0.508966666667     0.405700000000     0.927633333333     0          
H1       H      0.514933333333     0.398366666667     0.934966666667     0          
O2       O      0.455333333333     0.406033333333     0.739366666667     0          
C3       C      0.491033333333     0.405700000000     0.739033333333     0          
H1       H      0.485066666667     0.398366666667     0.731700000000     0          
O2       O      0.544666666667     0.593966666667     0.739366666667     0          
C3       C      0.508966666667     0.594300000000     0.739033333333     0          
H1       H      0.514933333333     0.601633333333     0.731700000000     0          
Zn1      Zn     0.431133333333     0.735533333333     0.068866666667     0          
O1       O      0.416666666667     0.750000000000     0.083333333333     0          
O2       O      0.427300000000     0.739366666667     0.044666666667     0          
C1       C      0.416666666667     0.750000000000     0.037100000000     0          
C2       C      0.416666666667     0.750000000000     0.017933333333     0          
C3       C      0.427633333333     0.739033333333     0.008966666667     0          
H1       H      0.434966666667     0.731700000000     0.014933333333     0          
Zn1      Zn     0.597800000000     0.764466666667     0.068866666667     0          
O1       O      0.583333333333     0.750000000000     0.083333333333     0          
O2       O      0.593966666667     0.760633333333     0.044666666667     0          
C1       C      0.583333333333     0.750000000000     0.037100000000     0          
C2       C      0.583333333333     0.750000000000     0.017933333333     0          
C3       C      0.594300000000     0.760966666667     0.008966666667     0          
H1       H      0.601633333333     0.768300000000     0.014933333333     0          
Zn1      Zn     0.568866666667     0.931133333333     0.068866666667     0          
O1       O      0.583333333333     0.916666666667     0.083333333333     0          
O2       O      0.572700000000     0.927300000000     0.044666666667     0          
C1       C      0.583333333333     0.916666666667     0.037100000000     0          
C2       C      0.583333333333     0.916666666667     0.017933333333     0          
C3       C      0.572366666667     0.927633333333     0.008966666667     0          
H1       H      0.565033333333     0.934966666667     0.014933333333     0          
Zn1      Zn     0.402200000000     0.902200000000     0.068866666667     0          
O1       O      0.416666666667     0.916666666667     0.083333333333     0          
O2       O      0.406033333333     0.906033333333     0.044666666667     0          
C1       C      0.416666666667     0.916666666667     0.037100000000     0          
C2       C      0.416666666667     0.916666666667     0.017933333333     0          
C3       C      0.405700000000     0.905700000000     0.008966666667     0          
H1       H      0.398366666667     0.898366666667     0.014933333333     0          
Zn1      Zn     0.431133333333     0.931133333333     0.264466666667     0          
O1       O      0.416666666667     0.916666666667     0.250000000000     0          
O2       O      0.427300000000     0.927300000000     0.288666666667     0          
C1       C      0.416666666667     0.916666666667     0.296233333333     0          
C2       C      0.416666666667     0.916666666667     0.315400000000     0          
C3       C      0.427633333333     0.927633333333     0.324366666667     0          
H1       H      0.434966666667     0.934966666667     0.318400000000     0          
Zn1      Zn     0.402200000000     0.764466666667     0.264466666667     0          
O1       O      0.416666666667     0.750000000000     0.250000000000     0          
O2       O      0.406033333333     0.760633333333     0.288666666667     0          
C1       C      0.416666666667     0.750000000000     0.296233333333     0          
C2       C      0.416666666667     0.750000000000     0.315400000000     0          
C3       C      0.405700000000     0.760966666667     0.324366666667     0          
H1       H      0.398366666667     0.768300000000     0.318400000000     0          
Zn1      Zn     0.568866666667     0.735533333333     0.264466666667     0          
O1       O      0.583333333333     0.750000000000     0.250000000000     0          
O2       O      0.572700000000     0.739366666667     0.288666666667     0          
C1       C      0.583333333333     0.750000000000     0.296233333333     0          
C2       C      0.583333333333     0.750000000000     0.315400000000     0          
C3       C      0.572366666667     0.739033333333     0.324366666667     0          
H1       H      0.565033333333     0.731700000000     0.318400000000     0          
Zn1      Zn     0.597800000000     0.902200000000     0.264466666667     0          
O1       O      0.583333333333     0.916666666667     0.250000000000     0          
O2       O      0.593966666667     0.906033333333     0.288666666667     0          
C1       C      0.583333333333     0.916666666667     0.296233333333     0          
C2       C      0.583333333333     0.916666666667     0.315400000000     0          
C3       C      0.594300000000     0.905700000000     0.324366666667     0          
H1       H      0.601633333333     0.898366666667     0.318400000000     0          
Zn1      Zn     0.402200000000     0.764466666667     0.068866666667     0          
O2       O      0.378000000000     0.760633333333     0.072700000000     0          
C1       C      0.370433333333     0.750000000000     0.083333333333     0          
C2       C      0.351266666667     0.750000000000     0.083333333333     0          
C3       C      0.342300000000     0.760966666667     0.072366666667     0          
H1       H      0.348266666667     0.768300000000     0.065033333333     0          
Zn1      Zn     0.568866666667     0.735533333333     0.068866666667     0          
O2       O      0.572700000000     0.711333333333     0.072700000000     0          
C1       C      0.583333333333     0.703766666667     0.083333333333     0          
C2       C      0.583333333333     0.684600000000     0.083333333333     0          
C3       C      0.572366666667     0.675633333333     0.072366666667     0          
H1       H      0.565033333333     0.681600000000     0.065033333333     0          
Zn1      Zn     0.597800000000     0.902200000000     0.068866666667     0          
O2       O      0.622000000000     0.906033333333     0.072700000000     0          
C1       C      0.629566666667     0.916666666667     0.083333333333     0          
C2       C      0.648733333333     0.916666666667     0.083333333333     0          
C3       C      0.657700000000     0.905700000000     0.072366666667     0          
H1       H      0.651733333333     0.898366666667     0.065033333333     0          
Zn1      Zn     0.431133333333     0.931133333333     0.068866666667     0          
O2       O      0.427300000000     0.955333333333     0.072700000000     0          
C1       C      0.416666666667     0.962900000000     0.083333333333     0          
C2       C      0.416666666667     0.982066666667     0.083333333333     0          
C3       C      0.427633333333     0.991033333333     0.072366666667     0          
H1       H      0.434966666667     0.985066666667     0.065033333333     0          
Zn1      Zn     0.402200000000     0.902200000000     0.264466666667     0          
O2       O      0.378000000000     0.906033333333     0.260633333333     0          
C1       C      0.370433333333     0.916666666667     0.250000000000     0          
C2       C      0.351266666667     0.916666666667     0.250000000000     0          
C3       C      0.342300000000     0.905700000000     0.260966666667     0          
H1       H      0.348266666667     0.898366666667     0.268300000000     0          
Zn1      Zn     0.431133333333     0.735533333333     0.264466666667     0          
O2       O      0.427300000000     0.711333333333     0.260633333333     0          
C1       C      0.416666666667     0.703766666667     0.250000000000     0          
C2       C      0.416666666667     0.684600000000     0.250000000000     0          
C3       C      0.427633333333     0.675633333333     0.260966666667     0          
H1       H      0.434966666667     0.681600000000     0.268300000000     0          
Zn1      Zn     0.597800000000     0.764466666667     0.264466666667     0          
O2       O      0.622000000000     0.760633333333     0.260633333333     0          
C1       C      0.629566666667     0.750000000000     0.250000000000     0          
C2       C      0.648733333333     0.750000000000     0.250000000000     0          
C3       C      0.657700000000     0.760966666667     0.260966666667     0          
H1       H      0.651733333333     0.768300000000     0.268300000000     0          
Zn1      Zn     0.568866666667     0.931133333333     0.264466666667     0          
O2       O      0.572700000000     0.955333333333     0.260633333333     0          
C1       C      0.583333333333     0.962900000000     0.250000000000     0          
C2       C      0.583333333333     0.982066666667     0.250000000000     0          
C3       C      0.572366666667     0.991033333333     0.260966666667     0          
H1       H      0.565033333333     0.985066666667     0.268300000000     0          
Zn1      Zn     0.402200000000     0.735533333333     0.097800000000     0          
O2       O      0.406033333333     0.711333333333     0.093966666667     0          
C1       C      0.416666666667     0.703766666667     0.083333333333     0          
C2       C      0.416666666667     0.684600000000     0.083333333333     0          
C3       C      0.405700000000     0.675633333333     0.094300000000     0          
H1       H      0.398366666667     0.681600000000     0.101633333333     0          
Zn1      Zn     0.402200000000     0.931133333333     0.235533333333     0          
O2       O      0.406033333333     0.955333333333     0.239366666667     0          
C1       C      0.416666666667     0.962900000000     0.250000000000     0          
C2       C      0.416666666667     0.982066666667     0.250000000000     0          
C3       C      0.405700000000     0.991033333333     0.239033333333     0          
H1       H      0.398366666667     0.985066666667     0.231700000000     0          
Zn1      Zn     0.402200000000     0.735533333333     0.235533333333     0          
O2       O      0.378000000000     0.739366666667     0.239366666667     0          
C1       C      0.370433333333     0.750000000000     0.250000000000     0          
C2       C      0.351266666667     0.750000000000     0.250000000000     0          
C3       C      0.342300000000     0.739033333333     0.239033333333     0          
H1       H      0.348266666667     0.731700000000     0.231700000000     0          
Zn1      Zn     0.597800000000     0.735533333333     0.235533333333     0          
O2       O      0.593966666667     0.711333333333     0.239366666667     0          
C1       C      0.583333333333     0.703766666667     0.250000000000     0          
C2       C      0.583333333333     0.684600000000     0.250000000000     0          
C3       C      0.594300000000     0.675633333333     0.239033333333     0          
H1       H      0.601633333333     0.681600000000     0.231700000000     0          
Zn1      Zn     0.597800000000     0.931133333333     0.235533333333     0          
O2       O      0.622000000000     0.927300000000     0.239366666667     0          
C1       C      0.629566666667     0.916666666667     0.250000000000     0          
C2       C      0.648733333333     0.916666666667     0.250000000000     0          
C3       C      0.657700000000     0.927633333333     0.239033333333     0          
H1       H      0.651733333333     0.934966666667     0.231700000000     0          
Zn1      Zn     0.597800000000     0.931133333333     0.097800000000     0          
O2       O      0.593966666667     0.955333333333     0.093966666667     0          
C1       C      0.583333333333     0.962900000000     0.083333333333     0          
C2       C      0.583333333333     0.982066666667     0.083333333333     0          
C3       C      0.594300000000     0.991033333333     0.094300000000     0          
H1       H      0.601633333333     0.985066666667     0.101633333333     0          
Zn1      Zn     0.402200000000     0.931133333333     0.097800000000     0          
O2       O      0.378000000000     0.927300000000     0.093966666667     0          
C1       C      0.370433333333     0.916666666667     0.083333333333     0          
C2       C      0.351266666667     0.916666666667     0.083333333333     0          
C3       C      0.342300000000     0.927633333333     0.094300000000     0          
H1       H      0.348266666667     0.934966666667     0.101633333333     0          
Zn1      Zn     0.597800000000     0.735533333333     0.097800000000     0          
O2       O      0.622000000000     0.739366666667     0.093966666667     0          
C1       C      0.629566666667     0.750000000000     0.083333333333     0          
C2       C      0.648733333333     0.750000000000     0.083333333333     0          
C3       C      0.657700000000     0.739033333333     0.094300000000     0          
H1       H      0.651733333333     0.731700000000     0.101633333333     0          
O2       O      0.572700000000     0.927300000000     0.288666666667     0          
C3       C      0.572366666667     0.927633333333     0.324366666667     0          
H1       H      0.565033333333     0.934966666667     0.318400000000     0          
O2       O      0.406033333333     0.906033333333     0.288666666667     0          
C3       C      0.405700000000     0.905700000000     0.324366666667     0          
H1       H      0.398366666667     0.898366666667     0.318400000000     0          
O2       O      0.427300000000     0.739366666667     0.288666666667     0          
C3       C      0.427633333333     0.739033333333     0.324366666667     0          
H1       H      0.434966666667     0.731700000000     0.318400000000     0          
O2       O      0.593966666667     0.760633333333     0.288666666667     0          
C3       C      0.594300000000     0.760966666667     0.324366666667     0          
H1       H      0.601633333333     0.768300000000     0.318400000000     0          
O2       O      0.572700000000     0.739366666667     0.044666666667     0          
C3       C      0.572366666667     0.739033333333     0.008966666667     0          
H1       H      0.565033333333     0.731700000000     0.014933333333     0          
O2       O      0.593966666667     0.906033333333     0.044666666667     0          
C3       C      0.594300000000     0.905700000000     0.008966666667     0          
H1       H      0.601633333333     0.898366666667     0.014933333333     0          
O2       O      0.427300000000     0.927300000000     0.044666666667     0          
C3       C      0.427633333333     0.927633333333     0.008966666667     0          
H1       H      0.434966666667     0.934966666667     0.014933333333     0          
O2       O      0.406033333333     0.760633333333     0.044666666667     0          
C3       C      0.405700000000     0.760966666667     0.008966666667     0          
H1       H      0.398366666667     0.768300000000     0.014933333333     0          
O2       O      0.622000000000     0.906033333333     0.260633333333     0          
C3       C      0.657700000000     0.905700000000     0.260966666667     0          
H1       H      0.651733333333     0.898366666667     0.268300000000     0          
O2       O      0.427300000000     0.955333333333     0.260633333333     0          
C3       C      0.427633333333     0.991033333333     0.260966666667     0          
H1       H      0.434966666667     0.985066666667     0.268300000000     0          
O2       O      0.378000000000     0.760633333333     0.260633333333     0          
C3       C      0.342300000000     0.760966666667     0.260966666667     0          
H1       H      0.348266666667     0.768300000000     0.268300000000     0          
O2       O      0.572700000000     0.711333333333     0.260633333333     0          
C3       C      0.572366666667     0.675633333333     0.260966666667     0          
H1       H      0.565033333333     0.681600000000     0.268300000000     0          
O2       O      0.622000000000     0.760633333333     0.072700000000     0          
C3       C      0.657700000000     0.760966666667     0.072366666667     0          
H1       H      0.651733333333     0.768300000000     0.065033333333     0          
O2       O      0.572700000000     0.955333333333     0.072700000000     0          
C3       C      0.572366666667     0.991033333333     0.072366666667     0          
H1       H      0.565033333333     0.985066666667     0.065033333333     0          
O2       O      0.378000000000     0.906033333333     0.072700000000     0          
C3       C      0.342300000000     0.905700000000     0.072366666667     0          
H1       H      0.348266666667     0.898366666667     0.065033333333     0          
O2       O      0.427300000000     0.711333333333     0.072700000000     0          
C3       C      0.427633333333     0.675633333333     0.072366666667     0          
H1       H      0.434966666667     0.681600000000     0.065033333333     0          
O2       O      0.593966666667     0.955333333333     0.239366666667     0          
C3       C      0.594300000000     0.991033333333     0.239033333333     0          
H1       H      0.601633333333     0.985066666667     0.231700000000     0          
O2       O      0.593966666667     0.711333333333     0.093966666667     0          
C3       C      0.594300000000     0.675633333333     0.094300000000     0          
H1       H      0.601633333333     0.681600000000     0.101633333333     0          
O2       O      0.622000000000     0.927300000000     0.093966666667     0          
C3       C      0.657700000000     0.927633333333     0.094300000000     0          
H1       H      0.651733333333     0.934966666667     0.101633333333     0          
O2       O      0.406033333333     0.955333333333     0.093966666667     0          
C3       C      0.405700000000     0.991033333333     0.094300000000     0          
H1       H      0.398366666667     0.985066666667     0.101633333333     0          
O2       O      0.378000000000     0.739366666667     0.093966666667     0          
C3       C      0.342300000000     0.739033333333     0.094300000000     0          
H1       H      0.348266666667     0.731700000000     0.101633333333     0          
O2       O      0.406033333333     0.711333333333     0.239366666667     0          
C3       C      0.405700000000     0.675633333333     0.239033333333     0          
H1       H      0.398366666667     0.681600000000     0.231700000000     0          
O2       O      0.622000000000     0.739366666667     0.239366666667     0          
C3       C      0.657700000000     0.739033333333     0.239033333333     0          
H1       H      0.651733333333     0.731700000000     0.231700000000     0          
O2       O      0.378000000000     0.927300000000     0.239366666667     0          
C3       C      0.342300000000     0.927633333333     0.239033333333     0          
H1       H      0.348266666667     0.934966666667     0.231700000000     0          
Zn1      Zn     0.431133333333     0.902200000000     0.235533333333     0          
O2       O      0.427300000000     0.906033333333     0.211333333333     0          
C1       C      0.416666666667     0.916666666667     0.203766666667     0          
C2       C      0.416666666667     0.916666666667     0.184600000000     0          
C3       C      0.427633333333     0.905700000000     0.175633333333     0          
H1       H      0.434966666667     0.898366666667     0.181600000000     0          
O2       O      0.593966666667     0.927300000000     0.211333333333     0          
C1       C      0.583333333333     0.916666666667     0.203766666667     0          
C2       C      0.583333333333     0.916666666667     0.184600000000     0          
C3       C      0.594300000000     0.927633333333     0.175633333333     0          
H1       H      0.601633333333     0.934966666667     0.181600000000     0          
Zn1      Zn     0.568866666667     0.764466666667     0.235533333333     0          
O2       O      0.572700000000     0.760633333333     0.211333333333     0          
C1       C      0.583333333333     0.750000000000     0.203766666667     0          
C2       C      0.583333333333     0.750000000000     0.184600000000     0          
C3       C      0.572366666667     0.760966666667     0.175633333333     0          
H1       H      0.565033333333     0.768300000000     0.181600000000     0          
O2       O      0.406033333333     0.739366666667     0.211333333333     0          
C1       C      0.416666666667     0.750000000000     0.203766666667     0          
C2       C      0.416666666667     0.750000000000     0.184600000000     0          
C3       C      0.405700000000     0.739033333333     0.175633333333     0          
H1       H      0.398366666667     0.731700000000     0.181600000000     0          
Zn1      Zn     0.431133333333     0.764466666667     0.097800000000     0          
O2       O      0.427300000000     0.760633333333     0.122000000000     0          
C1       C      0.416666666667     0.750000000000     0.129566666667     0          
C2       C      0.416666666667     0.750000000000     0.148733333333     0          
C3       C      0.427633333333     0.760966666667     0.157700000000     0          
H1       H      0.434966666667     0.768300000000     0.151733333333     0          
O2       O      0.406033333333     0.927300000000     0.122000000000     0          
C1       C      0.416666666667     0.916666666667     0.129566666667     0          
C2       C      0.416666666667     0.916666666667     0.148733333333     0          
C3       C      0.405700000000     0.927633333333     0.157700000000     0          
H1       H      0.398366666667     0.934966666667     0.151733333333     0          
Zn1      Zn     0.568866666667     0.902200000000     0.097800000000     0          
O2       O      0.572700000000     0.906033333333     0.122000000000     0          
C1       C      0.583333333333     0.916666666667     0.129566666667     0          
C2       C      0.583333333333     0.916666666667     0.148733333333     0          
C3       C      0.572366666667     0.905700000000     0.157700000000     0          
H1       H      0.565033333333     0.898366666667     0.151733333333     0          
O2       O      0.593966666667     0.739366666667     0.122000000000     0          
C1       C      0.583333333333     0.750000000000     0.129566666667     0          
C2       C      0.583333333333     0.750000000000     0.148733333333     0          
C3       C      0.594300000000     0.739033333333     0.157700000000     0          
H1       H      0.601633333333     0.731700000000     0.151733333333     0          
Zn1      Zn     0.568866666667     0.902200000000     0.235533333333     0          
O2       O      0.572700000000     0.878000000000     0.239366666667     0          
C1       C      0.583333333333     0.870433333333     0.250000000000     0          
C2       C      0.583333333333     0.851266666667     0.250000000000     0          
C3       C      0.572366666667     0.842300000000     0.239033333333     0          
H1       H      0.565033333333     0.848266666667     0.231700000000     0          
Zn1      Zn     0.431133333333     0.764466666667     0.235533333333     0          
O2       O      0.427300000000     0.788666666667     0.239366666667     0          
C1       C      0.416666666667     0.796233333333     0.250000000000     0          
C2       C      0.416666666667     0.815400000000     0.250000000000     0          
C3       C      0.427633333333     0.824366666667     0.239033333333     0          
H1       H      0.434966666667     0.818400000000     0.231700000000     0          
Zn1      Zn     0.431133333333     0.902200000000     0.097800000000     0          
O2       O      0.427300000000     0.878000000000     0.093966666667     0          
C1       C      0.416666666667     0.870433333333     0.083333333333     0          
C2       C      0.416666666667     0.851266666667     0.083333333333     0          
C3       C      0.427633333333     0.842300000000     0.094300000000     0          
H1       H      0.434966666667     0.848266666667     0.101633333333     0          
Zn1      Zn     0.568866666667     0.764466666667     0.097800000000     0          
O2       O      0.572700000000     0.788666666667     0.093966666667     0          
C1       C      0.583333333333     0.796233333333     0.083333333333     0          
C2       C      0.583333333333     0.815400000000     0.083333333333     0          
C3       C      0.572366666667     0.824366666667     0.094300000000     0          
H1       H      0.565033333333     0.818400000000     0.101633333333     0          
O2       O      0.406033333333     0.878000000000     0.260633333333     0          
C1       C      0.416666666667     0.870433333333     0.250000000000     0          
C2       C      0.416666666667     0.851266666667     0.250000000000     0          
C3       C      0.405700000000     0.842300000000     0.260966666667     0          
H1       H      0.398366666667     0.848266666667     0.268300000000     0          
O2       O      0.406033333333     0.788666666667     0.072700000000     0          
C1       C      0.416666666667     0.796233333333     0.083333333333     0          
C2       C      0.416666666667     0.815400000000     0.083333333333     0          
C3       C      0.405700000000     0.824366666667     0.072366666667     0          
H1       H      0.398366666667     0.818400000000     0.065033333333     0          
O2       O      0.593966666667     0.878000000000     0.072700000000     0          
C1       C      0.583333333333     0.870433333333     0.083333333333     0          
C2       C      0.583333333333     0.851266666667     0.083333333333     0          
C3       C      0.594300000000     0.842300000000     0.072366666667     0          
H1       H      0.601633333333     0.848266666667     0.065033333333     0          
O2       O      0.593966666667     0.788666666667     0.260633333333     0          
C1       C      0.583333333333     0.796233333333     0.250000000000     0          
C2       C      0.583333333333     0.815400000000     0.250000000000     0          
C3       C      0.594300000000     0.824366666667     0.260966666667     0          
H1       H      0.601633333333     0.818400000000     0.268300000000     0          
O2       O      0.572700000000     0.760633333333     0.122000000000     0          
C3       C      0.572366666667     0.760966666667     0.157700000000     0          
H1       H      0.565033333333     0.768300000000     0.151733333333     0          
O2       O      0.406033333333     0.739366666667     0.122000000000     0          
C3       C      0.405700000000     0.739033333333     0.157700000000     0          
H1       H      0.398366666667     0.731700000000     0.151733333333     0          
O2       O      0.427300000000     0.906033333333     0.122000000000     0          
C3       C      0.427633333333     0.905700000000     0.157700000000     0          
H1       H      0.434966666667     0.898366666667     0.151733333333     0          
O2       O      0.593966666667     0.927300000000     0.122000000000     0          
C3       C      0.594300000000     0.927633333333     0.157700000000     0          
H1       H      0.601633333333     0.934966666667     0.151733333333     0          
O2       O      0.572700000000     0.906033333333     0.211333333333     0          
C3       C      0.572366666667     0.905700000000     0.175633333333     0          
H1       H      0.565033333333     0.898366666667     0.181600000000     0          
O2       O      0.593966666667     0.739366666667     0.211333333333     0          
C3       C      0.594300000000     0.739033333333     0.175633333333     0          
H1       H      0.601633333333     0.731700000000     0.181600000000     0          
O2       O      0.427300000000     0.760633333333     0.211333333333     0          
C3       C      0.427633333333     0.760966666667     0.175633333333     0          
H1       H      0.434966666667     0.768300000000     0.181600000000     0          
O2       O      0.406033333333     0.927300000000     0.211333333333     0          
C3       C      0.405700000000     0.927633333333     0.175633333333     0          
H1       H      0.398366666667     0.934966666667     0.181600000000     0          
O2       O      0.427300000000     0.788666666667     0.093966666667     0          
C3       C      0.427633333333     0.824366666667     0.094300000000     0          
H1       H      0.434966666667     0.818400000000     0.101633333333     0          
O2       O      0.572700000000     0.878000000000     0.093966666667     0          
C3       C      0.572366666667     0.842300000000     0.094300000000     0          
H1       H      0.565033333333     0.848266666667     0.101633333333     0          
O2       O      0.572700000000     0.788666666667     0.239366666667     0          
C3       C      0.572366666667     0.824366666667     0.239033333333     0          
H1       H      0.565033333333     0.818400000000     0.231700000000     0          
O2       O      0.427300000000     0.878000000000     0.239366666667     0          
C3       C      0.427633333333     0.842300000000     0.239033333333     0          
H1       H      0.434966666667     0.848266666667     0.231700000000     0          
O2       O      0.593966666667     0.788666666667     0.072700000000     0          
C3       C      0.594300000000     0.824366666667     0.072366666667     0          
H1       H      0.601633333333     0.818400000000     0.065033333333     0          
O2       O      0.593966666667     0.878000000000     0.260633333333     0          
C3       C      0.594300000000     0.842300000000     0.260966666667     0          
H1       H      0.601633333333     0.848266666667     0.268300000000     0          
O2       O      0.406033333333     0.788666666667     0.260633333333     0          
C3       C      0.405700000000     0.824366666667     0.260966666667     0          
H1       H      0.398366666667     0.818400000000     0.268300000000     0          
O2       O      0.406033333333     0.878000000000     0.072700000000     0          
C3       C      0.405700000000     0.842300000000     0.072366666667     0          
H1       H      0.398366666667     0.848266666667     0.065033333333     0          
O2       O      0.544666666667     0.760633333333     0.239366666667     0          
C1       C      0.537100000000     0.750000000000     0.250000000000     0          
C2       C      0.517933333333     0.750000000000     0.250000000000     0          
C3       C      0.508966666667     0.760966666667     0.239033333333     0          
H1       H      0.514933333333     0.768300000000     0.231700000000     0          
O2       O      0.455333333333     0.906033333333     0.239366666667     0          
C1       C      0.462900000000     0.916666666667     0.250000000000     0          
C2       C      0.482066666667     0.916666666667     0.250000000000     0          
C3       C      0.491033333333     0.905700000000     0.239033333333     0          
H1       H      0.485066666667     0.898366666667     0.231700000000     0          
O2       O      0.544666666667     0.906033333333     0.093966666667     0          
C1       C      0.537100000000     0.916666666667     0.083333333333     0          
C2       C      0.517933333333     0.916666666667     0.083333333333     0          
C3       C      0.508966666667     0.905700000000     0.094300000000     0          
H1       H      0.514933333333     0.898366666667     0.101633333333     0          
O2       O      0.455333333333     0.760633333333     0.093966666667     0          
C1       C      0.462900000000     0.750000000000     0.083333333333     0          
C2       C      0.482066666667     0.750000000000     0.083333333333     0          
C3       C      0.491033333333     0.760966666667     0.094300000000     0          
H1       H      0.485066666667     0.768300000000     0.101633333333     0          
O2       O      0.544666666667     0.739366666667     0.072700000000     0          
C1       C      0.537100000000     0.750000000000     0.083333333333     0          
C2       C      0.517933333333     0.750000000000     0.083333333333     0          
C3       C      0.508966666667     0.739033333333     0.072366666667     0          
H1       H      0.514933333333     0.731700000000     0.065033333333     0          
O2       O      0.455333333333     0.927300000000     0.072700000000     0          
C1       C      0.462900000000     0.916666666667     0.083333333333     0          
C2       C      0.482066666667     0.916666666667     0.083333333333     0          
C3       C      0.491033333333     0.927633333333     0.072366666667     0          
H1       H      0.485066666667     0.934966666667     0.065033333333     0          
O2       O      0.544666666667     0.927300000000     0.260633333333     0          
C1       C      0.537100000000     0.916666666667     0.250000000000     0          
C2       C      0.517933333333     0.916666666667     0.250000000000     0          
C3       C      0.508966666667     0.927633333333     0.260966666667     0          
H1       H      0.514933333333     0.934966666667     0.268300000000     0          
O2       O      0.455333333333     0.739366666667     0.260633333333     0          
C1       C      0.462900000000     0.750000000000     0.250000000000     0          
C2       C      0.482066666667     0.750000000000     0.250000000000     0          
C3       C      0.491033333333     0.739033333333     0.260966666667     0          
H1       H      0.485066666667     0.731700000000     0.268300000000     0          
O2       O      0.455333333333     0.906033333333     0.093966666667     0          
C3       C      0.491033333333     0.905700000000     0.094300000000     0          
H1       H      0.485066666667     0.898366666667     0.101633333333     0          
O2       O      0.544666666667     0.760633333333     0.093966666667     0          
C3       C      0.508966666667     0.760966666667     0.094300000000     0          
H1       H      0.514933333333     0.768300000000     0.101633333333     0          
O2       O      0.455333333333     0.760633333333     0.239366666667     0          
C3       C      0.491033333333     0.760966666667     0.239033333333     0          
H1       H      0.485066666667     0.768300000000     0.231700000000     0          
O2       O      0.544666666667     0.906033333333     0.239366666667     0          
C3       C      0.508966666667     0.905700000000     0.239033333333     0          
H1       H      0.514933333333     0.898366666667     0.231700000000     0          
O2       O      0.455333333333     0.927300000000     0.260633333333     0          
C3       C      0.491033333333     0.927633333333     0.260966666667     0          
H1       H      0.485066666667     0.934966666667     0.268300000000     0          
O2       O      0.544666666667     0.739366666667     0.260633333333     0          
C3       C      0.508966666667     0.739033333333     0.260966666667     0          
H1       H      0.514933333333     0.731700000000     0.268300000000     0          
O2       O      0.455333333333     0.739366666667     0.072700000000     0          
C3       C      0.491033333333     0.739033333333     0.072366666667     0          
H1       H      0.485066666667     0.731700000000     0.065033333333     0          
O2       O      0.544666666667     0.927300000000     0.072700000000     0          
C3       C      0.508966666667     0.927633333333     0.072366666667     0          
H1       H      0.514933333333     0.934966666667     0.065033333333     0          
Zn1      Zn     0.431133333333     0.735533333333     0.402200000000     0          
O1       O      0.416666666667     0.750000000000     0.416666666667     0          
O2       O      0.427300000000     0.739366666667     0.378000000000     0          
C1       C      0.416666666667     0.750000000000     0.370433333333     0          
C2       C      0.416666666667     0.750000000000     0.351266666667     0          
C3       C      0.427633333333     0.739033333333     0.342300000000     0          
H1       H      0.434966666667     0.731700000000     0.348266666667     0          
Zn1      Zn     0.597800000000     0.764466666667     0.402200000000     0          
O1       O      0.583333333333     0.750000000000     0.416666666667     0          
O2       O      0.593966666667     0.760633333333     0.378000000000     0          
C1       C      0.583333333333     0.750000000000     0.370433333333     0          
C2       C      0.583333333333     0.750000000000     0.351266666667     0          
C3       C      0.594300000000     0.760966666667     0.342300000000     0          
H1       H      0.601633333333     0.768300000000     0.348266666667     0          
Zn1      Zn     0.568866666667     0.931133333333     0.402200000000     0          
O1       O      0.583333333333     0.916666666667     0.416666666667     0          
O2       O      0.572700000000     0.927300000000     0.378000000000     0          
C1       C      0.583333333333     0.916666666667     0.370433333333     0          
C2       C      0.583333333333     0.916666666667     0.351266666667     0          
C3       C      0.572366666667     0.927633333333     0.342300000000     0          
H1       H      0.565033333333     0.934966666667     0.348266666667     0          
Zn1      Zn     0.402200000000     0.902200000000     0.402200000000     0          
O1       O      0.416666666667     0.916666666667     0.416666666667     0          
O2       O      0.406033333333     0.906033333333     0.378000000000     0          
C1       C      0.416666666667     0.916666666667     0.370433333333     0          
C2       C      0.416666666667     0.916666666667     0.351266666667     0          
C3       C      0.405700000000     0.905700000000     0.342300000000     0          
H1       H      0.398366666667     0.898366666667     0.348266666667     0          
Zn1      Zn     0.431133333333     0.931133333333     0.597800000000     0          
O1       O      0.416666666667     0.916666666667     0.583333333333     0          
O2       O      0.427300000000     0.927300000000     0.622000000000     0          
C1       C      0.416666666667     0.916666666667     0.629566666667     0          
C2       C      0.416666666667     0.916666666667     0.648733333333     0          
C3       C      0.427633333333     0.927633333333     0.657700000000     0          
H1       H      0.434966666667     0.934966666667     0.651733333333     0          
Zn1      Zn     0.402200000000     0.764466666667     0.597800000000     0          
O1       O      0.416666666667     0.750000000000     0.583333333333     0          
O2       O      0.406033333333     0.760633333333     0.622000000000     0          
C1       C      0.416666666667     0.750000000000     0.629566666667     0          
C2       C      0.416666666667     0.750000000000     0.648733333333     0          
C3       C      0.405700000000     0.760966666667     0.657700000000     0          
H1       H      0.398366666667     0.768300000000     0.651733333333     0          
Zn1      Zn     0.568866666667     0.735533333333     0.597800000000     0          
O1       O      0.583333333333     0.750000000000     0.583333333333     0          
O2       O      0.572700000000     0.739366666667     0.622000000000     0          
C1       C      0.583333333333     0.750000000000     0.629566666667     0          
C2       C      0.583333333333     0.750000000000     0.648733333333     0          
C3       C      0.572366666667     0.739033333333     0.657700000000     0          
H1       H      0.565033333333     0.731700000000     0.651733333333     0          
Zn1      Zn     0.597800000000     0.902200000000     0.597800000000     0          
O1       O      0.583333333333     0.916666666667     0.583333333333     0          
O2       O      0.593966666667     0.906033333333     0.622000000000     0          
C1       C      0.583333333333     0.916666666667     0.629566666667     0          
C2       C      0.583333333333     0.916666666667     0.648733333333     0          
C3       C      0.594300000000     0.905700000000     0.657700000000     0          
H1       H      0.601633333333     0.898366666667     0.651733333333     0          
Zn1      Zn     0.402200000000     0.764466666667     0.402200000000     0          
O2       O      0.378000000000     0.760633333333     0.406033333333     0          
C1       C      0.370433333333     0.750000000000     0.416666666667     0          
C2       C      0.351266666667     0.750000000000     0.416666666667     0          
C3       C      0.342300000000     0.760966666667     0.405700000000     0          
H1       H      0.348266666667     0.768300000000     0.398366666667     0          
Zn1      Zn     0.568866666667     0.735533333333     0.402200000000     0          
O2       O      0.572700000000     0.711333333333     0.406033333333     0          
C1       C      0.583333333333     0.703766666667     0.416666666667     0          
C2       C      0.583333333333     0.684600000000     0.416666666667     0          
C3       C      0.572366666667     0.675633333333     0.405700000000     0          
H1       H      0.565033333333     0.681600000000     0.398366666667     0          
Zn1      Zn     0.597800000000     0.902200000000     0.402200000000     0          
O2       O      0.622000000000     0.906033333333     0.406033333333     0          
C1       C      0.629566666667     0.916666666667     0.416666666667     0          
C2       C      0.648733333333     0.916666666667     0.416666666667     0          
C3       C      0.657700000000     0.905700000000     0.405700000000     0          
H1       H      0.651733333333     0.898366666667     0.398366666667     0          
Zn1      Zn     0.431133333333     0.931133333333     0.402200000000     0          
O2       O      0.427300000000     0.955333333333     0.406033333333     0          
C1       C      0.416666666667     0.962900000000     0.416666666667     0          
C2       C      0.416666666667     0.982066666667     0.416666666667     0          
C3       C      0.427633333333     0.991033333333     0.405700000000     0          
H1       H      0.434966666667     0.985066666667     0.398366666667     0          
Zn1      Zn     0.402200000000     0.902200000000     0.597800000000     0          
O2       O      0.378000000000     0.906033333333     0.593966666667     0          
C1       C      0.370433333333     0.916666666667     0.583333333333     0          
C2       C      0.351266666667     0.916666666667     0.583333333333     0          
C3       C      0.342300000000     0.905700000000     0.594300000000     0          
H1       H      0.348266666667     0.898366666667     0.601633333333     0          
Zn1      Zn     0.431133333333     0.735533333333     0.597800000000     0          
O2       O      0.427300000000     0.711333333333     0.593966666667     0          
C1       C      0.416666666667     0.703766666667     0.583333333333     0          
C2       C      0.416666666667     0.684600000000     0.583333333333     0          
C3       C      0.427633333333     0.675633333333     0.594300000000     0          
H1       H      0.434966666667     0.681600000000     0.601633333333     0          
Zn1      Zn     0.597800000000     0.764466666667     0.597800000000     0          
O2       O      0.622000000000     0.760633333333     0.593966666667     0          
C1       C      0.629566666667     0.750000000000     0.583333333333     0          
C2       C      0.648733333333     0.750000000000     0.583333333333     0          
C3       C      0.657700000000     0.760966666667     0.594300000000     0          
H1       H      0.651733333333     0.768300000000     0.601633333333     0          
Zn1      Zn     0.568866666667     0.931133333333     0.597800000000     0          
O2       O      0.572700000000     0.955333333333     0.593966666667     0          
C1       C      0.583333333333     0.962900000000     0.583333333333     0          
C2       C      0.583333333333     0.982066666667     0.583333333333     0          
C3       C      0.572366666667     0.991033333333     0.594300000000     0          
H1       H      0.565033333333     0.985066666667     0.601633333333     0          
Zn1      Zn     0.402200000000     0.735533333333     0.431133333333     0          
O2       O      0.406033333333     0.711333333333     0.427300000000     0          
C1       C      0.416666666667     0.703766666667     0.416666666667     0          
C2       C      0.416666666667     0.684600000000     0.416666666667     0          
C3       C      0.405700000000     0.675633333333     0.427633333333     0          
H1       H      0.398366666667     0.681600000000     0.434966666667     0          
Zn1      Zn     0.402200000000     0.931133333333     0.568866666667     0          
O2       O      0.406033333333     0.955333333333     0.572700000000     0          
C1       C      0.416666666667     0.962900000000     0.583333333333     0          
C2       C      0.416666666667     0.982066666667     0.583333333333     0          
C3       C      0.405700000000     0.991033333333     0.572366666667     0          
H1       H      0.398366666667     0.985066666667     0.565033333333     0          
Zn1      Zn     0.402200000000     0.735533333333     0.568866666667     0          
O2       O      0.378000000000     0.739366666667     0.572700000000     0          
C1       C      0.370433333333     0.750000000000     0.583333333333     0          
C2       C      0.351266666667     0.750000000000     0.583333333333     0          
C3       C      0.342300000000     0.739033333333     0.572366666667     0          
H1       H      0.348266666667     0.731700000000     0.565033333333     0          
Zn1      Zn     0.597800000000     0.735533333333     0.568866666667     0          
O2       O      0.593966666667     0.711333333333     0.572700000000     0          
C1       C      0.583333333333     0.703766666667     0.583333333333     0          
C2       C      0.583333333333     0.684600000000     0.583333333333     0          
C3       C      0.594300000000     0.675633333333     0.572366666667     0          
H1       H      0.601633333333     0.681600000000     0.565033333333     0          
Zn1      Zn     0.597800000000     0.931133333333     0.568866666667     0          
O2       O      0.622000000000     0.927300000000     0.572700000000     0          
C1       C      0.629566666667     0.916666666667     0.583333333333     0          
C2       C      0.648733333333     0.916666666667     0.583333333333     0          
C3       C      0.657700000000     0.927633333333     0.572366666667     0          
H1       H      0.651733333333     0.934966666667     0.565033333333     0          
Zn1      Zn     0.597800000000     0.931133333333     0.431133333333     0          
O2       O      0.593966666667     0.955333333333     0.427300000000     0          
C1       C      0.583333333333     0.962900000000     0.416666666667     0          
C2       C      0.583333333333     0.982066666667     0.416666666667     0          
C3       C      0.594300000000     0.991033333333     0.427633333333     0          
H1       H      0.601633333333     0.985066666667     0.434966666667     0          
Zn1      Zn     0.402200000000     0.931133333333     0.431133333333     0          
O2       O      0.378000000000     0.927300000000     0.427300000000     0          
C1       C      0.370433333333     0.916666666667     0.416666666667     0          
C2       C      0.351266666667     0.916666666667     0.416666666667     0          
C3       C      0.342300000000     0.927633333333     0.427633333333     0          
H1       H      0.348266666667     0.934966666667     0.434966666667     0          
Zn1      Zn     0.597800000000     0.735533333333     0.431133333333     0          
O2       O      0.622000000000     0.739366666667     0.427300000000     0          
C1       C      0.629566666667     0.750000000000     0.416666666667     0          
C2       C      0.648733333333     0.750000000000     0.416666666667     0          
C3       C      0.657700000000     0.739033333333     0.427633333333     0          
H1       H      0.651733333333     0.731700000000     0.434966666667     0          
O2       O      0.572700000000     0.927300000000     0.622000000000     0          
C3       C      0.572366666667     0.927633333333     0.657700000000     0          
H1       H      0.565033333333     0.934966666667     0.651733333333     0          
O2       O      0.406033333333     0.906033333333     0.622000000000     0          
C3       C      0.405700000000     0.905700000000     0.657700000000     0          
H1       H      0.398366666667     0.898366666667     0.651733333333     0          
O2       O      0.427300000000     0.739366666667     0.622000000000     0          
C3       C      0.427633333333     0.739033333333     0.657700000000     0          
H1       H      0.434966666667     0.731700000000     0.651733333333     0          
O2       O      0.593966666667     0.760633333333     0.622000000000     0          
C3       C      0.594300000000     0.760966666667     0.657700000000     0          
H1       H      0.601633333333     0.768300000000     0.651733333333     0          
O2       O      0.572700000000     0.739366666667     0.378000000000     0          
C3       C      0.572366666667     0.739033333333     0.342300000000     0          
H1       H      0.565033333333     0.731700000000     0.348266666667     0          
O2       O      0.593966666667     0.906033333333     0.378000000000     0          
C3       C      0.594300000000     0.905700000000     0.342300000000     0          
H1       H      0.601633333333     0.898366666667     0.348266666667     0          
O2       O      0.427300000000     0.927300000000     0.378000000000     0          
C3       C      0.427633333333     0.927633333333     0.342300000000     0          
H1       H      0.434966666667     0.934966666667     0.348266666667     0          
O2       O      0.406033333333     0.760633333333     0.378000000000     0          
C3       C      0.405700000000     0.760966666667     0.342300000000     0          
H1       H      0.398366666667     0.768300000000     0.348266666667     0          
O2       O      0.622000000000     0.906033333333     0.593966666667     0          
C3       C      0.657700000000     0.905700000000     0.594300000000     0          
H1       H      0.651733333333     0.898366666667     0.601633333333     0          
O2       O      0.427300000000     0.955333333333     0.593966666667     0          
C3       C      0.427633333333     0.991033333333     0.594300000000     0          
H1       H      0.434966666667     0.985066666667     0.601633333333     0          
O2       O      0.378000000000     0.760633333333     0.593966666667     0          
C3       C      0.342300000000     0.760966666667     0.594300000000     0          
H1       H      0.348266666667     0.768300000000     0.601633333333     0          
O2       O      0.572700000000     0.711333333333     0.593966666667     0          
C3       C      0.572366666667     0.675633333333     0.594300000000     0          
H1       H      0.565033333333     0.681600000000     0.601633333333     0          
O2       O      0.622000000000     0.760633333333     0.406033333333     0          
C3       C      0.657700000000     0.760966666667     0.405700000000     0          
H1       H      0.651733333333     0.768300000000     0.398366666667     0          
O2       O      0.572700000000     0.955333333333     0.406033333333     0          
C3       C      0.572366666667     0.991033333333     0.405700000000     0          
H1       H      0.565033333333     0.985066666667     0.398366666667     0          
O2       O      0.378000000000     0.906033333333     0.406033333333     0          
C3       C      0.342300000000     0.905700000000     0.405700000000     0          
H1       H      0.348266666667     0.898366666667     0.398366666667     0          
O2       O      0.427300000000     0.711333333333     0.406033333333     0          
C3       C      0.427633333333     0.675633333333     0.405700000000     0          
H1       H      0.434966666667     0.681600000000     0.398366666667     0          
O2       O      0.593966666667     0.955333333333     0.572700000000     0          
C3       C      0.594300000000     0.991033333333     0.572366666667     0          
H1       H      0.601633333333     0.985066666667     0.565033333333     0          
O2       O      0.593966666667     0.711333333333     0.427300000000     0          
C3       C      0.594300000000     0.675633333333     0.427633333333     0          
H1       H      0.601633333333     0.681600000000     0.434966666667     0          
O2       O      0.622000000000     0.927300000000     0.427300000000     0          
C3       C      0.657700000000     0.927633333333     0.427633333333     0          
H1       H      0.651733333333     0.934966666667     0.434966666667     0          
O2       O      0.406033333333     0.955333333333     0.427300000000     0          
C3       C      0.405700000000     0.991033333333     0.427633333333     0          
H1       H      0.398366666667     0.985066666667     0.434966666667     0          
O2       O      0.378000000000     0.739366666667     0.427300000000     0          
C3       C      0.342300000000     0.739033333333     0.427633333333     0          
H1       H      0.348266666667     0.731700000000     0.434966666667     0          
O2       O      0.406033333333     0.711333333333     0.572700000000     0          
C3       C      0.405700000000     0.675633333333     0.572366666667     0          
H1       H      0.398366666667     0.681600000000     0.565033333333     0          
O2       O      0.622000000000     0.739366666667     0.572700000000     0          
C3       C      0.657700000000     0.739033333333     0.572366666667     0          
H1       H      0.651733333333     0.731700000000     0.565033333333     0          
O2       O      0.378000000000     0.927300000000     0.572700000000     0          
C3       C      0.342300000000     0.927633333333     0.572366666667     0          
H1       H      0.348266666667     0.934966666667     0.565033333333     0          
Zn1      Zn     0.431133333333     0.902200000000     0.568866666667     0          
O2       O      0.427300000000     0.906033333333     0.544666666667     0          
C1       C      0.416666666667     0.916666666667     0.537100000000     0          
C2       C      0.416666666667     0.916666666667     0.517933333333     0          
C3       C      0.427633333333     0.905700000000     0.508966666667     0          
H1       H      0.434966666667     0.898366666667     0.514933333333     0          
O2       O      0.593966666667     0.927300000000     0.544666666667     0          
C1       C      0.583333333333     0.916666666667     0.537100000000     0          
C2       C      0.583333333333     0.916666666667     0.517933333333     0          
C3       C      0.594300000000     0.927633333333     0.508966666667     0          
H1       H      0.601633333333     0.934966666667     0.514933333333     0          
Zn1      Zn     0.568866666667     0.764466666667     0.568866666667     0          
O2       O      0.572700000000     0.760633333333     0.544666666667     0          
C1       C      0.583333333333     0.750000000000     0.537100000000     0          
C2       C      0.583333333333     0.750000000000     0.517933333333     0          
C3       C      0.572366666667     0.760966666667     0.508966666667     0          
H1       H      0.565033333333     0.768300000000     0.514933333333     0          
O2       O      0.406033333333     0.739366666667     0.544666666667     0          
C1       C      0.416666666667     0.750000000000     0.537100000000     0          
C2       C      0.416666666667     0.750000000000     0.517933333333     0          
C3       C      0.405700000000     0.739033333333     0.508966666667     0          
H1       H      0.398366666667     0.731700000000     0.514933333333     0          
Zn1      Zn     0.431133333333     0.764466666667     0.431133333333     0          
O2       O      0.427300000000     0.760633333333     0.455333333333     0          
C1       C      0.416666666667     0.750000000000     0.462900000000     0          
C2       C      0.416666666667     0.750000000000     0.482066666667     0          
C3       C      0.427633333333     0.760966666667     0.491033333333     0          
H1       H      0.434966666667     0.768300000000     0.485066666667     0          
O2       O      0.406033333333     0.927300000000     0.455333333333     0          
C1       C      0.416666666667     0.916666666667     0.462900000000     0          
C2       C      0.416666666667     0.916666666667     0.482066666667     0          
C3       C      0.405700000000     0.927633333333     0.491033333333     0          
H1       H      0.398366666667     0.934966666667     0.485066666667     0          
Zn1      Zn     0.568866666667     0.902200000000     0.431133333333     0          
O2       O      0.572700000000     0.906033333333     0.455333333333     0          
C1       C      0.583333333333     0.916666666667     0.462900000000     0          
C2       C      0.583333333333     0.916666666667     0.482066666667     0          
C3       C      0.572366666667     0.905700000000     0.491033333333     0          
H1       H      0.565033333333     0.898366666667     0.485066666667     0          
O2       O      0.593966666667     0.739366666667     0.455333333333     0          
C1       C      0.583333333333     0.750000000000     0.462900000000     0          
C2       C      0.583333333333     0.750000000000     0.482066666667     0          
C3       C      0.594300000000     0.739033333333     0.491033333333     0          
H1       H      0.601633333333     0.731700000000     0.485066666667     0          
Zn1      Zn     0.568866666667     0.902200000000     0.568866666667     0          
O2       O      0.572700000000     0.878000000000     0.572700000000     0          
C1       C      0.583333333333     0.870433333333     0.583333333333     0          
C2       C      0.583333333333     0.851266666667     0.583333333333     0          
C3       C      0.572366666667     0.842300000000     0.572366666667     0          
H1       H      0.565033333333     0.848266666667     0.565033333333     0          
Zn1      Zn     0.431133333333     0.764466666667     0.568866666667     0          
O2       O      0.427300000000     0.788666666667     0.572700000000     0          
C1       C      0.416666666667     0.796233333333     0.583333333333     0          
C2       C      0.416666666667     0.815400000000     0.583333333333     0          
C3       C      0.427633333333     0.824366666667     0.572366666667     0          
H1       H      0.434966666667     0.818400000000     0.565033333333     0          
Zn1      Zn     0.431133333333     0.902200000000     0.431133333333     0          
O2       O      0.427300000000     0.878000000000     0.427300000000     0          
C1       C      0.416666666667     0.870433333333     0.416666666667     0          
C2       C      0.416666666667     0.851266666667     0.416666666667     0          
C3       C      0.427633333333     0.842300000000     0.427633333333     0          
H1       H      0.434966666667     0.848266666667     0.434966666667     0          
Zn1      Zn     0.568866666667     0.764466666667     0.431133333333     0          
O2       O      0.572700000000     0.788666666667     0.427300000000     0          
C1       C      0.583333333333     0.796233333333     0.416666666667     0          
C2       C      0.583333333333     0.815400000000     0.416666666667     0          
C3       C      0.572366666667     0.824366666667     0.427633333333     0          
H1       H      0.565033333333     0.818400000000     0.434966666667     0          
O2       O      0.406033333333     0.878000000000     0.593966666667     0          
C1       C      0.416666666667     0.870433333333     0.583333333333     0          
C2       C      0.416666666667     0.851266666667     0.583333333333     0          
C3       C      0.405700000000     0.842300000000     0.594300000000     0          
H1       H      0.398366666667     0.848266666667     0.601633333333     0          
O2       O      0.406033333333     0.788666666667     0.406033333333     0          
C1       C      0.416666666667     0.796233333333     0.416666666667     0          
C2       C      0.416666666667     0.815400000000     0.416666666667     0          
C3       C      0.405700000000     0.824366666667     0.405700000000     0          
H1       H      0.398366666667     0.818400000000     0.398366666667     0          
O2       O      0.593966666667     0.878000000000     0.406033333333     0          
C1       C      0.583333333333     0.870433333333     0.416666666667     0          
C2       C      0.583333333333     0.851266666667     0.416666666667     0          
C3       C      0.594300000000     0.842300000000     0.405700000000     0          
H1       H      0.601633333333     0.848266666667     0.398366666667     0          
O2       O      0.593966666667     0.788666666667     0.593966666667     0          
C1       C      0.583333333333     0.796233333333     0.583333333333     0          
C2       C      0.583333333333     0.815400000000     0.583333333333     0          
C3       C      0.594300000000     0.824366666667     0.594300000000     0          
H1       H      0.601633333333     0.818400000000     0.601633333333     0          
O2       O      0.572700000000     0.760633333333     0.455333333333     0          
C3       C      0.572366666667     0.760966666667     0.491033333333     0          
H1       H      0.565033333333     0.768300000000     0.485066666667     0          
O2       O      0.406033333333     0.739366666667     0.455333333333     0          
C3       C      0.405700000000     0.739033333333     0.491033333333     0          
H1       H      0.398366666667     0.731700000000     0.485066666667     0          
O2       O      0.427300000000     0.906033333333     0.455333333333     0          
C3       C      0.427633333333     0.905700000000     0.491033333333     0          
H1       H      0.434966666667     0.898366666667     0.485066666667     0          
O2       O      0.593966666667     0.927300000000     0.455333333333     0          
C3       C      0.594300000000     0.927633333333     0.491033333333     0          
H1       H      0.601633333333     0.934966666667     0.485066666667     0          
O2       O      0.572700000000     0.906033333333     0.544666666667     0          
C3       C      0.572366666667     0.905700000000     0.508966666667     0          
H1       H      0.565033333333     0.898366666667     0.514933333333     0          
O2       O      0.593966666667     0.739366666667     0.544666666667     0          
C3       C      0.594300000000     0.739033333333     0.508966666667     0          
H1       H      0.601633333333     0.731700000000     0.514933333333     0          
O2       O      0.427300000000     0.760633333333     0.544666666667     0          
C3       C      0.427633333333     0.760966666667     0.508966666667     0          
H1       H      0.434966666667     0.768300000000     0.514933333333     0          
O2       O      0.406033333333     0.927300000000     0.544666666667     0          
C3       C      0.405700000000     0.927633333333     0.508966666667     0          
H1       H      0.398366666667     0.934966666667     0.514933333333     0          
O2       O      0.427300000000     0.788666666667     0.427300000000     0          
C3       C      0.427633333333     0.824366666667     0.427633333333     0          
H1       H      0.434966666667     0.818400000000     0.434966666667     0          
O2       O      0.572700000000     0.878000000000     0.427300000000     0          
C3       C      0.572366666667     0.842300000000     0.427633333333     0          
H1       H      0.565033333333     0.848266666667     0.434966666667     0          
O2       O      0.572700000000     0.788666666667     0.572700000000     0          
C3       C      0.572366666667     0.824366666667     0.572366666667     0          
H1       H      0.565033333333     0.818400000000     0.565033333333     0          
O2       O      0.427300000000     0.878000000000     0.572700000000     0          
C3       C      0.427633333333     0.842300000000     0.572366666667     0          
H1       H      0.434966666667     0.848266666667     0.565033333333     0          
O2       O      0.593966666667     0.788666666667     0.406033333333     0          
C3       C      0.594300000000     0.824366666667     0.405700000000     0          
H1       H      0.601633333333     0.818400000000     0.398366666667     0          
O2       O      0.593966666667     0.878000000000     0.593966666667     0          
C3       C      0.594300000000     0.842300000000     0.594300000000     0          
H1       H      0.601633333333     0.848266666667     0.601633333333     0          
O2       O      0.406033333333     0.788666666667     0.593966666667     0          
C3       C      0.405700000000     0.824366666667     0.594300000000     0          
H1       H      0.398366666667     0.818400000000     0.601633333333     0          
O2       O      0.406033333333     0.878000000000     0.406033333333     0          
C3       C      0.405700000000     0.842300000000     0.405700000000     0          
H1       H      0.398366666667     0.848266666667     0.398366666667     0          
O2       O      0.544666666667     0.760633333333     0.572700000000     0          
C1       C      0.537100000000     0.750000000000     0.583333333333     0          
C2       C      0.517933333333     0.750000000000     0.583333333333     0          
C3       C      0.508966666667     0.760966666667     0.572366666667     0          
H1       H      0.514933333333     0.768300000000     0.565033333333     0          
O2       O      0.455333333333     0.906033333333     0.572700000000     0          
C1       C      0.462900000000     0.916666666667     0.583333333333     0          
C2       C      0.482066666667     0.916666666667     0.583333333333     0          
C3       C      0.491033333333     0.905700000000     0.572366666667     0          
H1       H      0.485066666667     0.898366666667     0.565033333333     0          
O2       O      0.544666666667     0.906033333333     0.427300000000     0          
C1       C      0.537100000000     0.916666666667     0.416666666667     0          
C2       C      0.517933333333     0.916666666667     0.416666666667     0          
C3       C      0.508966666667     0.905700000000     0.427633333333     0          
H1       H      0.514933333333     0.898366666667     0.434966666667     0          
O2       O      0.455333333333     0.760633333333     0.427300000000     0          
C1       C      0.462900000000     0.750000000000     0.416666666667     0          
C2       C      0.482066666667     0.750000000000     0.416666666667     0          
C3       C      0.491033333333     0.760966666667     0.427633333333     0          
H1       H      0.485066666667     0.768300000000     0.434966666667     0          
O2       O      0.544666666667     0.739366666667     0.406033333333     0          
C1       C      0.537100000000     0.750000000000     0.416666666667     0          
C2       C      0.517933333333     0.750000000000     0.416666666667     0          
C3       C      0.508966666667     0.739033333333     0.405700000000     0          
H1       H      0.514933333333     0.731700000000     0.398366666667     0          
O2       O      0.455333333333     0.927300000000     0.406033333333     0          
C1       C      0.462900000000     0.916666666667     0.416666666667     0          
C2       C      0.482066666667     0.916666666667     0.416666666667     0          
C3       C      0.491033333333     0.927633333333     0.405700000000     0          
H1       H      0.485066666667     0.934966666667     0.398366666667     0          
O2       O      0.544666666667     0.927300000000     0.593966666667     0          
C1       C      0.537100000000     0.916666666667     0.583333333333     0          
C2       C      0.517933333333     0.916666666667     0.583333333333     0          
C3       C      0.508966666667     0.927633333333     0.594300000000     0          
H1       H      0.514933333333     0.934966666667     0.601633333333     0          
O2       O      0.455333333333     0.739366666667     0.593966666667     0          
C1       C      0.462900000000     0.750000000000     0.583333333333     0          
C2       C      0.482066666667     0.750000000000     0.583333333333     0          
C3       C      0.491033333333     0.739033333333     0.594300000000     0          
H1       H      0.485066666667     0.731700000000     0.601633333333     0          
O2       O      0.455333333333     0.906033333333     0.427300000000     0          
C3       C      0.491033333333     0.905700000000     0.427633333333     0          
H1       H      0.485066666667     0.898366666667     0.434966666667     0          
O2       O      0.544666666667     0.760633333333     0.427300000000     0          
C3       C      0.508966666667     0.760966666667     0.427633333333     0          
H1       H      0.514933333333     0.768300000000     0.434966666667     0          
O2       O      0.455333333333     0.760633333333     0.572700000000     0          
C3       C      0.491033333333     0.760966666667     0.572366666667     0          
H1       H      0.485066666667     0.768300000000     0.565033333333     0          
O2       O      0.544666666667     0.906033333333     0.572700000000     0          
C3       C      0.508966666667     0.905700000000     0.572366666667     0          
H1       H      0.514933333333     0.898366666667     0.565033333333     0          
O2       O      0.455333333333     0.927300000000     0.593966666667     0          
C3       C      0.491033333333     0.927633333333     0.594300000000     0          
H1       H      0.485066666667     0.934966666667     0.601633333333     0          
O2       O      0.544666666667     0.739366666667     0.593966666667     0          
C3       C      0.508966666667     0.739033333333     0.594300000000     0          
H1       H      0.514933333333     0.731700000000     0.601633333333     0          
O2       O      0.455333333333     0.739366666667     0.406033333333     0          
C3       C      0.491033333333     0.739033333333     0.405700000000     0          
H1       H      0.485066666667     0.731700000000     0.398366666667     0          
O2       O      0.544666666667     0.927300000000     0.406033333333     0          
C3       C      0.508966666667     0.927633333333     0.405700000000     0          
H1       H      0.514933333333     0.934966666667     0.398366666667     0          
Zn1      Zn     0.431133333333     0.735533333333     0.735533333333     0          
O1       O      0.416666666667     0.750000000000     0.750000000000     0          
O2       O      0.427300000000     0.739366666667     0.711333333333     0          
C1       C      0.416666666667     0.750000000000     0.703766666667     0          
C2       C      0.416666666667     0.750000000000     0.684600000000     0          
C3       C      0.427633333333     0.739033333333     0.675633333333     0          
H1       H      0.434966666667     0.731700000000     0.681600000000     0          
Zn1      Zn     0.597800000000     0.764466666667     0.735533333333     0          
O1       O      0.583333333333     0.750000000000     0.750000000000     0          
O2       O      0.593966666667     0.760633333333     0.711333333333     0          
C1       C      0.583333333333     0.750000000000     0.703766666667     0          
C2       C      0.583333333333     0.750000000000     0.684600000000     0          
C3       C      0.594300000000     0.760966666667     0.675633333333     0          
H1       H      0.601633333333     0.768300000000     0.681600000000     0          
Zn1      Zn     0.568866666667     0.931133333333     0.735533333333     0          
O1       O      0.583333333333     0.916666666667     0.750000000000     0          
O2       O      0.572700000000     0.927300000000     0.711333333333     0          
C1       C      0.583333333333     0.916666666667     0.703766666667     0          
C2       C      0.583333333333     0.916666666667     0.684600000000     0          
C3       C      0.572366666667     0.927633333333     0.675633333333     0          
H1       H      0.565033333333     0.934966666667     0.681600000000     0          
Zn1      Zn     0.402200000000     0.902200000000     0.735533333333     0          
O1       O      0.416666666667     0.916666666667     0.750000000000     0          
O2       O      0.406033333333     0.906033333333     0.711333333333     0          
C1       C      0.416666666667     0.916666666667     0.703766666667     0          
C2       C      0.416666666667     0.916666666667     0.684600000000     0          
C3       C      0.405700000000     0.905700000000     0.675633333333     0          
H1       H      0.398366666667     0.898366666667     0.681600000000     0          
Zn1      Zn     0.431133333333     0.931133333333     0.931133333333     0          
O1       O      0.416666666667     0.916666666667     0.916666666667     0          
O2       O      0.427300000000     0.927300000000     0.955333333333     0          
C1       C      0.416666666667     0.916666666667     0.962900000000     0          
C2       C      0.416666666667     0.916666666667     0.982066666667     0          
C3       C      0.427633333333     0.927633333333     0.991033333333     0          
H1       H      0.434966666667     0.934966666667     0.985066666667     0          
Zn1      Zn     0.402200000000     0.764466666667     0.931133333333     0          
O1       O      0.416666666667     0.750000000000     0.916666666667     0          
O2       O      0.406033333333     0.760633333333     0.955333333333     0          
C1       C      0.416666666667     0.750000000000     0.962900000000     0          
C2       C      0.416666666667     0.750000000000     0.982066666667     0          
C3       C      0.405700000000     0.760966666667     0.991033333333     0          
H1       H      0.398366666667     0.768300000000     0.985066666667     0          
Zn1      Zn     0.568866666667     0.735533333333     0.931133333333     0          
O1       O      0.583333333333     0.750000000000     0.916666666667     0          
O2       O      0.572700000000     0.739366666667     0.955333333333     0          
C1       C      0.583333333333     0.750000000000     0.962900000000     0          
C2       C      0.583333333333     0.750000000000     0.982066666667     0          
C3       C      0.572366666667     0.739033333333     0.991033333333     0          
H1       H      0.565033333333     0.731700000000     0.985066666667     0          
Zn1      Zn     0.597800000000     0.902200000000     0.931133333333     0          
O1       O      0.583333333333     0.916666666667     0.916666666667     0          
O2       O      0.593966666667     0.906033333333     0.955333333333     0          
C1       C      0.583333333333     0.916666666667     0.962900000000     0          
C2       C      0.583333333333     0.916666666667     0.982066666667     0          
C3       C      0.594300000000     0.905700000000     0.991033333333     0          
H1       H      0.601633333333     0.898366666667     0.985066666667     0          
Zn1      Zn     0.402200000000     0.764466666667     0.735533333333     0          
O2       O      0.378000000000     0.760633333333     0.739366666667     0          
C1       C      0.370433333333     0.750000000000     0.750000000000     0          
C2       C      0.351266666667     0.750000000000     0.750000000000     0          
C3       C      0.342300000000     0.760966666667     0.739033333333     0          
H1       H      0.348266666667     0.768300000000     0.731700000000     0          
Zn1      Zn     0.568866666667     0.735533333333     0.735533333333     0          
O2       O      0.572700000000     0.711333333333     0.739366666667     0          
C1       C      0.583333333333     0.703766666667     0.750000000000     0          
C2       C      0.583333333333     0.684600000000     0.750000000000     0          
C3       C      0.572366666667     0.675633333333     0.739033333333     0          
H1       H      0.565033333333     0.681600000000     0.731700000000     0          
Zn1      Zn     0.597800000000     0.902200000000     0.735533333333     0          
O2       O      0.622000000000     0.906033333333     0.739366666667     0          
C1       C      0.629566666667     0.916666666667     0.750000000000     0          
C2       C      0.648733333333     0.916666666667     0.750000000000     0          
C3       C      0.657700000000     0.905700000000     0.739033333333     0          
H1       H      0.651733333333     0.898366666667     0.731700000000     0          
Zn1      Zn     0.431133333333     0.931133333333     0.735533333333     0          
O2       O      0.427300000000     0.955333333333     0.739366666667     0          
C1       C      0.416666666667     0.962900000000     0.750000000000     0          
C2       C      0.416666666667     0.982066666667     0.750000000000     0          
C3       C      0.427633333333     0.991033333333     0.739033333333     0          
H1       H      0.434966666667     0.985066666667     0.731700000000     0          
Zn1      Zn     0.402200000000     0.902200000000     0.931133333333     0          
O2       O      0.378000000000     0.906033333333     0.927300000000     0          
C1       C      0.370433333333     0.916666666667     0.916666666667     0          
C2       C      0.351266666667     0.916666666667     0.916666666667     0          
C3       C      0.342300000000     0.905700000000     0.927633333333     0          
H1       H      0.348266666667     0.898366666667     0.934966666667     0          
Zn1      Zn     0.431133333333     0.735533333333     0.931133333333     0          
O2       O      0.427300000000     0.711333333333     0.927300000000     0          
C1       C      0.416666666667     0.703766666667     0.916666666667     0          
C2       C      0.416666666667     0.684600000000     0.916666666667     0          
C3       C      0.427633333333     0.675633333333     0.927633333333     0          
H1       H      0.434966666667     0.681600000000     0.934966666667     0          
Zn1      Zn     0.597800000000     0.764466666667     0.931133333333     0          
O2       O      0.622000000000     0.760633333333     0.927300000000     0          
C1       C      0.629566666667     0.750000000000     0.916666666667     0          
C2       C      0.648733333333     0.750000000000     0.916666666667     0          
C3       C      0.657700000000     0.760966666667     0.927633333333     0          
H1       H      0.651733333333     0.768300000000     0.934966666667     0          
Zn1      Zn     0.568866666667     0.931133333333     0.931133333333     0          
O2       O      0.572700000000     0.955333333333     0.927300000000     0          
C1       C      0.583333333333     0.962900000000     0.916666666667     0          
C2       C      0.583333333333     0.982066666667     0.916666666667     0          
C3       C      0.572366666667     0.991033333333     0.927633333333     0          
H1       H      0.565033333333     0.985066666667     0.934966666667     0          
Zn1      Zn     0.402200000000     0.735533333333     0.764466666667     0          
O2       O      0.406033333333     0.711333333333     0.760633333333     0          
C1       C      0.416666666667     0.703766666667     0.750000000000     0          
C2       C      0.416666666667     0.684600000000     0.750000000000     0          
C3       C      0.405700000000     0.675633333333     0.760966666667     0          
H1       H      0.398366666667     0.681600000000     0.768300000000     0          
Zn1      Zn     0.402200000000     0.931133333333     0.902200000000     0          
O2       O      0.406033333333     0.955333333333     0.906033333333     0          
C1       C      0.416666666667     0.962900000000     0.916666666667     0          
C2       C      0.416666666667     0.982066666667     0.916666666667     0          
C3       C      0.405700000000     0.991033333333     0.905700000000     0          
H1       H      0.398366666667     0.985066666667     0.898366666667     0          
Zn1      Zn     0.402200000000     0.735533333333     0.902200000000     0          
O2       O      0.378000000000     0.739366666667     0.906033333333     0          
C1       C      0.370433333333     0.750000000000     0.916666666667     0          
C2       C      0.351266666667     0.750000000000     0.916666666667     0          
C3       C      0.342300000000     0.739033333333     0.905700000000     0          
H1       H      0.348266666667     0.731700000000     0.898366666667     0          
Zn1      Zn     0.597800000000     0.735533333333     0.902200000000     0          
O2       O      0.593966666667     0.711333333333     0.906033333333     0          
C1       C      0.583333333333     0.703766666667     0.916666666667     0          
C2       C      0.583333333333     0.684600000000     0.916666666667     0          
C3       C      0.594300000000     0.675633333333     0.905700000000     0          
H1       H      0.601633333333     0.681600000000     0.898366666667     0          
Zn1      Zn     0.597800000000     0.931133333333     0.902200000000     0          
O2       O      0.622000000000     0.927300000000     0.906033333333     0          
C1       C      0.629566666667     0.916666666667     0.916666666667     0          
C2       C      0.648733333333     0.916666666667     0.916666666667     0          
C3       C      0.657700000000     0.927633333333     0.905700000000     0          
H1       H      0.651733333333     0.934966666667     0.898366666667     0          
Zn1      Zn     0.597800000000     0.931133333333     0.764466666667     0          
O2       O      0.593966666667     0.955333333333     0.760633333333     0          
C1       C      0.583333333333     0.962900000000     0.750000000000     0          
C2       C      0.583333333333     0.982066666667     0.750000000000     0          
C3       C      0.594300000000     0.991033333333     0.760966666667     0          
H1       H      0.601633333333     0.985066666667     0.768300000000     0          
Zn1      Zn     0.402200000000     0.931133333333     0.764466666667     0          
O2       O      0.378000000000     0.927300000000     0.760633333333     0          
C1       C      0.370433333333     0.916666666667     0.750000000000     0          
C2       C      0.351266666667     0.916666666667     0.750000000000     0          
C3       C      0.342300000000     0.927633333333     0.760966666667     0          
H1       H      0.348266666667     0.934966666667     0.768300000000     0          
Zn1      Zn     0.597800000000     0.735533333333     0.764466666667     0          
O2       O      0.622000000000     0.739366666667     0.760633333333     0          
C1       C      0.629566666667     0.750000000000     0.750000000000     0          
C2       C      0.648733333333     0.750000000000     0.750000000000     0          
C3       C      0.657700000000     0.739033333333     0.760966666667     0          
H1       H      0.651733333333     0.731700000000     0.768300000000     0          
O2       O      0.572700000000     0.927300000000     0.955333333333     0          
C3       C      0.572366666667     0.927633333333     0.991033333333     0          
H1       H      0.565033333333     0.934966666667     0.985066666667     0          
O2       O      0.406033333333     0.906033333333     0.955333333333     0          
C3       C      0.405700000000     0.905700000000     0.991033333333     0          
H1       H      0.398366666667     0.898366666667     0.985066666667     0          
O2       O      0.427300000000     0.739366666667     0.955333333333     0          
C3       C      0.427633333333     0.739033333333     0.991033333333     0          
H1       H      0.434966666667     0.731700000000     0.985066666667     0          
O2       O      0.593966666667     0.760633333333     0.955333333333     0          
C3       C      0.594300000000     0.760966666667     0.991033333333     0          
H1       H      0.601633333333     0.768300000000     0.985066666667     0          
O2       O      0.572700000000     0.739366666667     0.711333333333     0          
C3       C      0.572366666667     0.739033333333     0.675633333333     0          
H1       H      0.565033333333     0.731700000000     0.681600000000     0          
O2       O      0.593966666667     0.906033333333     0.711333333333     0          
C3       C      0.594300000000     0.905700000000     0.675633333333     0          
H1       H      0.601633333333     0.898366666667     0.681600000000     0          
O2       O      0.427300000000     0.927300000000     0.711333333333     0          
C3       C      0.427633333333     0.927633333333     0.675633333333     0          
H1       H      0.434966666667     0.934966666667     0.681600000000     0          
O2       O      0.406033333333     0.760633333333     0.711333333333     0          
C3       C      0.405700000000     0.760966666667     0.675633333333     0          
H1       H      0.398366666667     0.768300000000     0.681600000000     0          
O2       O      0.622000000000     0.906033333333     0.927300000000     0          
C3       C      0.657700000000     0.905700000000     0.927633333333     0          
H1       H      0.651733333333     0.898366666667     0.934966666667     0          
O2       O      0.427300000000     0.955333333333     0.927300000000     0          
C3       C      0.427633333333     0.991033333333     0.927633333333     0          
H1       H      0.434966666667     0.985066666667     0.934966666667     0          
O2       O      0.378000000000     0.760633333333     0.927300000000     0          
C3       C      0.342300000000     0.760966666667     0.927633333333     0          
H1       H      0.348266666667     0.768300000000     0.934966666667     0          
O2       O      0.572700000000     0.711333333333     0.927300000000     0          
C3       C      0.572366666667     0.675633333333     0.927633333333     0          
H1       H      0.565033333333     0.681600000000     0.934966666667     0          
O2       O      0.622000000000     0.760633333333     0.739366666667     0          
C3       C      0.657700000000     0.760966666667     0.739033333333     0          
H1       H      0.651733333333     0.768300000000     0.731700000000     0          
O2       O      0.572700000000     0.955333333333     0.739366666667     0          
C3       C      0.572366666667     0.991033333333     0.739033333333     0          
H1       H      0.565033333333     0.985066666667     0.731700000000     0          
O2       O      0.378000000000     0.906033333333     0.739366666667     0          
C3       C      0.342300000000     0.905700000000     0.739033333333     0          
H1       H      0.348266666667     0.898366666667     0.731700000000     0          
O2       O      0.427300000000     0.711333333333     0.739366666667     0          
C3       C      0.427633333333     0.675633333333     0.739033333333     0          
H1       H      0.434966666667     0.681600000000     0.731700000000     0          
O2       O      0.593966666667     0.955333333333     0.906033333333     0          
C3       C      0.594300000000     0.991033333333     0.905700000000     0          
H1       H      0.601633333333     0.985066666667     0.898366666667     0          
O2       O      0.593966666667     0.711333333333     0.760633333333     0          
C3       C      0.594300000000     0.675633333333     0.760966666667     0          
H1       H      0.601633333333     0.681600000000     0.768300000000     0          
O2       O      0.622000000000     0.927300000000     0.760633333333     0          
C3       C      0.657700000000     0.927633333333     0.760966666667     0          
H1       H      0.651733333333     0.934966666667     0.768300000000     0          
O2       O      0.406033333333     0.955333333333     0.760633333333     0          
C3       C      0.405700000000     0.991033333333     0.760966666667     0          
H1       H      0.398366666667     0.985066666667     0.768300000000     0          
O2       O      0.378000000000     0.739366666667     0.760633333333     0          
C3       C      0.342300000000     0.739033333333     0.760966666667     0          
H1       H      0.348266666667     0.731700000000     0.768300000000     0          
O2       O      0.406033333333     0.711333333333     0.906033333333     0          
C3       C      0.405700000000     0.675633333333     0.905700000000     0          
H1       H      0.398366666667     0.681600000000     0.898366666667     0          
O2       O      0.622000000000     0.739366666667     0.906033333333     0          
C3       C      0.657700000000     0.739033333333     0.905700000000     0          
H1       H      0.651733333333     0.731700000000     0.898366666667     0          
O2       O      0.378000000000     0.927300000000     0.906033333333     0          
C3       C      0.342300000000     0.927633333333     0.905700000000     0          
H1       H      0.348266666667     0.934966666667     0.898366666667     0          
Zn1      Zn     0.431133333333     0.902200000000     0.902200000000     0          
O2       O      0.427300000000     0.906033333333     0.878000000000     0          
C1       C      0.416666666667     0.916666666667     0.870433333333     0          
C2       C      0.416666666667     0.916666666667     0.851266666667     0          
C3       C      0.427633333333     0.905700000000     0.842300000000     0          
H1       H      0.434966666667     0.898366666667     0.848266666667     0          
O2       O      0.593966666667     0.927300000000     0.878000000000     0          
C1       C      0.583333333333     0.916666666667     0.870433333333     0          
C2       C      0.583333333333     0.916666666667     0.851266666667     0          
C3       C      0.594300000000     0.927633333333     0.842300000000     0          
H1       H      0.601633333333     0.934966666667     0.848266666667     0          
Zn1      Zn     0.568866666667     0.764466666667     0.902200000000     0          
O2       O      0.572700000000     0.760633333333     0.878000000000     0          
C1       C      0.583333333333     0.750000000000     0.870433333333     0          
C2       C      0.583333333333     0.750000000000     0.851266666667     0          
C3       C      0.572366666667     0.760966666667     0.842300000000     0          
H1       H      0.565033333333     0.768300000000     0.848266666667     0          
O2       O      0.406033333333     0.739366666667     0.878000000000     0          
C1       C      0.416666666667     0.750000000000     0.870433333333     0          
C2       C      0.416666666667     0.750000000000     0.851266666667     0          
C3       C      0.405700000000     0.739033333333     0.842300000000     0          
H1       H      0.398366666667     0.731700000000     0.848266666667     0          
Zn1      Zn     0.431133333333     0.764466666667     0.764466666667     0          
O2       O      0.427300000000     0.760633333333     0.788666666667     0          
C1       C      0.416666666667     0.750000000000     0.796233333333     0          
C2       C      0.416666666667     0.750000000000     0.815400000000     0          
C3       C      0.427633333333     0.760966666667     0.824366666667     0          
H1       H      0.434966666667     0.768300000000     0.818400000000     0          
O2       O      0.406033333333     0.927300000000     0.788666666667     0          
C1       C      0.416666666667     0.916666666667     0.796233333333     0          
C2       C      0.416666666667     0.916666666667     0.815400000000     0          
C3       C      0.405700000000     0.927633333333     0.824366666667     0          
H1       H      0.398366666667     0.934966666667     0.818400000000     0          
Zn1      Zn     0.568866666667     0.902200000000     0.764466666667     0          
O2       O      0.572700000000     0.906033333333     0.788666666667     0          
C1       C      0.583333333333     0.916666666667     0.796233333333     0          
C2       C      0.583333333333     0.916666666667     0.815400000000     0          
C3       C      0.572366666667     0.905700000000     0.824366666667     0          
H1       H      0.565033333333     0.898366666667     0.818400000000     0          
O2       O      0.593966666667     0.739366666667     0.788666666667     0          
C1       C      0.583333333333     0.750000000000     0.796233333333     0          
C2       C      0.583333333333     0.750000000000     0.815400000000     0          
C3       C      0.594300000000     0.739033333333     0.824366666667     0          
H1       H      0.601633333333     0.731700000000     0.818400000000     0          
Zn1      Zn     0.568866666667     0.902200000000     0.902200000000     0          
O2       O      0.572700000000     0.878000000000     0.906033333333     0          
C1       C      0.583333333333     0.870433333333     0.916666666667     0          
C2       C      0.583333333333     0.851266666667     0.916666666667     0          
C3       C      0.572366666667     0.842300000000     0.905700000000     0          
H1       H      0.565033333333     0.848266666667     0.898366666667     0          
Zn1      Zn     0.431133333333     0.764466666667     0.902200000000     0          
O2       O      0.427300000000     0.788666666667     0.906033333333     0          
C1       C      0.416666666667     0.796233333333     0.916666666667     0          
C2       C      0.416666666667     0.815400000000     0.916666666667     0          
C3       C      0.427633333333     0.824366666667     0.905700000000     0          
H1       H      0.434966666667     0.818400000000     0.898366666667     0          
Zn1      Zn     0.431133333333     0.902200000000     0.764466666667     0          
O2       O      0.427300000000     0.878000000000     0.760633333333     0          
C1       C      0.416666666667     0.870433333333     0.750000000000     0          
C2       C      0.416666666667     0.851266666667     0.750000000000     0          
C3       C      0.427633333333     0.842300000000     0.760966666667     0          
H1       H      0.434966666667     0.848266666667     0.768300000000     0          
Zn1      Zn     0.568866666667     0.764466666667     0.764466666667     0          
O2       O      0.572700000000     0.788666666667     0.760633333333     0          
C1       C      0.583333333333     0.796233333333     0.750000000000     0          
C2       C      0.583333333333     0.815400000000     0.750000000000     0          
C3       C      0.572366666667     0.824366666667     0.760966666667     0          
H1       H      0.565033333333     0.818400000000     0.768300000000     0          
O2       O      0.406033333333     0.878000000000     0.927300000000     0          
C1       C      0.416666666667     0.870433333333     0.916666666667     0          
C2       C      0.416666666667     0.851266666667     0.916666666667     0          
C3       C      0.405700000000     0.842300000000     0.927633333333     0          
H1       H      0.398366666667     0.848266666667     0.934966666667     0          
O2       O      0.406033333333     0.788666666667     0.739366666667     0          
C1       C      0.416666666667     0.796233333333     0.750000000000     0          
C2       C      0.416666666667     0.815400000000     0.750000000000     0          
C3       C      0.405700000000     0.824366666667     0.739033333333     0          
H1       H      0.398366666667     0.818400000000     0.731700000000     0          
O2       O      0.593966666667     0.878000000000     0.739366666667     0          
C1       C      0.583333333333     0.870433333333     0.750000000000     0          
C2       C      0.583333333333     0.851266666667     0.750000000000     0          
C3       C      0.594300000000     0.842300000000     0.739033333333     0          
H1       H      0.601633333333     0.848266666667     0.731700000000     0          
O2       O      0.593966666667     0.788666666667     0.927300000000     0          
C1       C      0.583333333333     0.796233333333     0.916666666667     0          
C2       C      0.583333333333     0.815400000000     0.916666666667     0          
C3       C      0.594300000000     0.824366666667     0.927633333333     0          
H1       H      0.601633333333     0.818400000000     0.934966666667     0          
O2       O      0.572700000000     0.760633333333     0.788666666667     0          
C3       C      0.572366666667     0.760966666667     0.824366666667     0          
H1       H      0.565033333333     0.768300000000     0.818400000000     0          
O2       O      0.406033333333     0.739366666667     0.788666666667     0          
C3       C      0.405700000000     0.739033333333     0.824366666667     0          
H1       H      0.398366666667     0.731700000000     0.818400000000     0          
O2       O      0.427300000000     0.906033333333     0.788666666667     0          
C3       C      0.427633333333     0.905700000000     0.824366666667     0          
H1       H      0.434966666667     0.898366666667     0.818400000000     0          
O2       O      0.593966666667     0.927300000000     0.788666666667     0          
C3       C      0.594300000000     0.927633333333     0.824366666667     0          
H1       H      0.601633333333     0.934966666667     0.818400000000     0          
O2       O      0.572700000000     0.906033333333     0.878000000000     0          
C3       C      0.572366666667     0.905700000000     0.842300000000     0          
H1       H      0.565033333333     0.898366666667     0.848266666667     0          
O2       O      0.593966666667     0.739366666667     0.878000000000     0          
C3       C      0.594300000000     0.739033333333     0.842300000000     0          
H1       H      0.601633333333     0.731700000000     0.848266666667     0          
O2       O      0.427300000000     0.760633333333     0.878000000000     0          
C3       C      0.427633333333     0.760966666667     0.842300000000     0          
H1       H      0.434966666667     0.768300000000     0.848266666667     0          
O2       O      0.406033333333     0.927300000000     0.878000000000     0          
C3       C      0.405700000000     0.927633333333     0.842300000000     0          
H1       H      0.398366666667     0.934966666667     0.848266666667     0          
O2       O      0.427300000000     0.788666666667     0.760633333333     0          
C3       C      0.427633333333     0.824366666667     0.760966666667     0          
H1       H      0.434966666667     0.818400000000     0.768300000000     0          
O2       O      0.572700000000     0.878000000000     0.760633333333     0          
C3       C      0.572366666667     0.842300000000     0.760966666667     0          
H1       H      0.565033333333     0.848266666667     0.768300000000     0          
O2       O      0.572700000000     0.788666666667     0.906033333333     0          
C3       C      0.572366666667     0.824366666667     0.905700000000     0          
H1       H      0.565033333333     0.818400000000     0.898366666667     0          
O2       O      0.427300000000     0.878000000000     0.906033333333     0          
C3       C      0.427633333333     0.842300000000     0.905700000000     0          
H1       H      0.434966666667     0.848266666667     0.898366666667     0          
O2       O      0.593966666667     0.788666666667     0.739366666667     0          
C3       C      0.594300000000     0.824366666667     0.739033333333     0          
H1       H      0.601633333333     0.818400000000     0.731700000000     0          
O2       O      0.593966666667     0.878000000000     0.927300000000     0          
C3       C      0.594300000000     0.842300000000     0.927633333333     0          
H1       H      0.601633333333     0.848266666667     0.934966666667     0          
O2       O      0.406033333333     0.788666666667     0.927300000000     0          
C3       C      0.405700000000     0.824366666667     0.927633333333     0          
H1       H      0.398366666667     0.818400000000     0.934966666667     0          
O2       O      0.406033333333     0.878000000000     0.739366666667     0          
C3       C      0.405700000000     0.842300000000     0.739033333333     0          
H1       H      0.398366666667     0.848266666667     0.731700000000     0          
O2       O      0.544666666667     0.760633333333     0.906033333333     0          
C1       C      0.537100000000     0.750000000000     0.916666666667     0          
C2       C      0.517933333333     0.750000000000     0.916666666667     0          
C3       C      0.508966666667     0.760966666667     0.905700000000     0          
H1       H      0.514933333333     0.768300000000     0.898366666667     0          
O2       O      0.455333333333     0.906033333333     0.906033333333     0          
C1       C      0.462900000000     0.916666666667     0.916666666667     0          
C2       C      0.482066666667     0.916666666667     0.916666666667     0          
C3       C      0.491033333333     0.905700000000     0.905700000000     0          
H1       H      0.485066666667     0.898366666667     0.898366666667     0          
O2       O      0.544666666667     0.906033333333     0.760633333333     0          
C1       C      0.537100000000     0.916666666667     0.750000000000     0          
C2       C      0.517933333333     0.916666666667     0.750000000000     0          
C3       C      0.508966666667     0.905700000000     0.760966666667     0          
H1       H      0.514933333333     0.898366666667     0.768300000000     0          
O2       O      0.455333333333     0.760633333333     0.760633333333     0          
C1       C      0.462900000000     0.750000000000     0.750000000000     0          
C2       C      0.482066666667     0.750000000000     0.750000000000     0          
C3       C      0.491033333333     0.760966666667     0.760966666667     0          
H1       H      0.485066666667     0.768300000000     0.768300000000     0          
O2       O      0.544666666667     0.739366666667     0.739366666667     0          
C1       C      0.537100000000     0.750000000000     0.750000000000     0          
C2       C      0.517933333333     0.750000000000     0.750000000000     0          
C3       C      0.508966666667     0.739033333333     0.739033333333     0          
H1       H      0.514933333333     0.731700000000     0.731700000000     0          
O2       O      0.455333333333     0.927300000000     0.739366666667     0          
C1       C      0.462900000000     0.916666666667     0.750000000000     0          
C2       C      0.482066666667     0.916666666667     0.750000000000     0          
C3       C      0.491033333333     0.927633333333     0.739033333333     0          
H1       H      0.485066666667     0.934966666667     0.731700000000     0          
O2       O      0.544666666667     0.927300000000     0.927300000000     0          
C1       C      0.537100000000     0.916666666667     0.916666666667     0          
C2       C      0.517933333333     0.916666666667     0.916666666667     0          
C3       C      0.508966666667     0.927633333333     0.927633333333     0          
H1       H      0.514933333333     0.934966666667     0.934966666667     0          
O2       O      0.455333333333     0.739366666667     0.927300000000     0          
C1       C      0.462900000000     0.750000000000     0.916666666667     0          
C2       C      0.482066666667     0.750000000000     0.916666666667     0          
C3       C      0.491033333333     0.739033333333     0.927633333333     0          
H1       H      0.485066666667     0.731700000000     0.934966666667     0          
O2       O      0.455333333333     0.906033333333     0.760633333333     0          
C3       C      0.491033333333     0.905700000000     0.760966666667     0          
H1       H      0.485066666667     0.898366666667     0.768300000000     0          
O2       O      0.544666666667     0.760633333333     0.760633333333     0          
C3       C      0.508966666667     0.760966666667     0.760966666667     0          
H1       H      0.514933333333     0.768300000000     0.768300000000     0          
O2       O      0.455333333333     0.760633333333     0.906033333333     0          
C3       C      0.491033333333     0.760966666667     0.905700000000     0          
H1       H      0.485066666667     0.768300000000     0.898366666667     0          
O2       O      0.544666666667     0.906033333333     0.906033333333     0          
C3       C      0.508966666667     0.905700000000     0.905700000000     0          
H1       H      0.514933333333     0.898366666667     0.898366666667     0          
O2       O      0.455333333333     0.927300000000     0.927300000000     0          
C3       C      0.491033333333     0.927633333333     0.927633333333     0          
H1       H      0.485066666667     0.934966666667     0.934966666667     0          
O2       O      0.544666666667     0.739366666667     0.927300000000     0          
C3       C      0.508966666667     0.739033333333     0.927633333333     0          
H1       H      0.514933333333     0.731700000000     0.934966666667     0          
O2       O      0.455333333333     0.739366666667     0.739366666667     0          
C3       C      0.491033333333     0.739033333333     0.739033333333     0          
H1       H      0.485066666667     0.731700000000     0.731700000000     0          
O2       O      0.544666666667     0.927300000000     0.739366666667     0          
C3       C      0.508966666667     0.927633333333     0.739033333333     0          
H1       H      0.514933333333     0.934966666667     0.731700000000     0          
Zn1      Zn     0.764466666667     0.068866666667     0.068866666667     0          
O1       O      0.750000000000     0.083333333333     0.083333333333     0          
O2       O      0.760633333333     0.072700000000     0.044666666667     0          
C1       C      0.750000000000     0.083333333333     0.037100000000     0          
C2       C      0.750000000000     0.083333333333     0.017933333333     0          
C3       C      0.760966666667     0.072366666667     0.008966666667     0          
H1       H      0.768300000000     0.065033333333     0.014933333333     0          
Zn1      Zn     0.931133333333     0.097800000000     0.068866666667     0          
O1       O      0.916666666667     0.083333333333     0.083333333333     0          
O2       O      0.927300000000     0.093966666667     0.044666666667     0          
C1       C      0.916666666667     0.083333333333     0.037100000000     0          
C2       C      0.916666666667     0.083333333333     0.017933333333     0          
C3       C      0.927633333333     0.094300000000     0.008966666667     0          
H1       H      0.934966666667     0.101633333333     0.014933333333     0          
Zn1      Zn     0.902200000000     0.264466666667     0.068866666667     0          
O1       O      0.916666666667     0.250000000000     0.083333333333     0          
O2       O      0.906033333333     0.260633333333     0.044666666667     0          
C1       C      0.916666666667     0.250000000000     0.037100000000     0          
C2       C      0.916666666667     0.250000000000     0.017933333333     0          
C3       C      0.905700000000     0.260966666667     0.008966666667     0          
H1       H      0.898366666667     0.268300000000     0.014933333333     0          
Zn1      Zn     0.735533333333     0.235533333333     0.068866666667     0          
O1       O      0.750000000000     0.250000000000     0.083333333333     0          
O2       O      0.739366666667     0.239366666667     0.044666666667     0          
C1       C      0.750000000000     0.250000000000     0.037100000000     0          
C2       C      0.750000000000     0.250000000000     0.017933333333     0          
C3       C      0.739033333333     0.239033333333     0.008966666667     0          
H1       H      0.731700000000     0.231700000000     0.014933333333     0          
Zn1      Zn     0.764466666667     0.264466666667     0.264466666667     0          
O1       O      0.750000000000     0.250000000000     0.250000000000     0          
O2       O      0.760633333333     0.260633333333     0.288666666667     0          
C1       C      0.750000000000     0.250000000000     0.296233333333     0          
C2       C      0.750000000000     0.250000000000     0.315400000000     0          
C3       C      0.760966666667     0.260966666667     0.324366666667     0          
H1       H      0.768300000000     0.268300000000     0.318400000000     0          
Zn1      Zn     0.735533333333     0.097800000000     0.264466666667     0          
O1       O      0.750000000000     0.083333333333     0.250000000000     0          
O2       O      0.739366666667     0.093966666667     0.288666666667     0          
C1       C      0.750000000000     0.083333333333     0.296233333333     0          
C2       C      0.750000000000     0.083333333333     0.315400000000     0          
C3       C      0.739033333333     0.094300000000     0.324366666667     0          
H1       H      0.731700000000     0.101633333333     0.318400000000     0          
Zn1      Zn     0.902200000000     0.068866666667     0.264466666667     0          
O1       O      0.916666666667     0.083333333333     0.250000000000     0          
O2       O      0.906033333333     0.072700000000     0.288666666667     0          
C1       C      0.916666666667     0.083333333333     0.296233333333     0          
C2       C      0.916666666667     0.083333333333     0.315400000000     0          
C3       C      0.905700000000     0.072366666667     0.324366666667     0          
H1       H      0.898366666667     0.065033333333     0.318400000000     0          
Zn1      Zn     0.931133333333     0.235533333333     0.264466666667     0          
O1       O      0.916666666667     0.250000000000     0.250000000000     0          
O2       O      0.927300000000     0.239366666667     0.288666666667     0          
C1       C      0.916666666667     0.250000000000     0.296233333333     0          
C2       C      0.916666666667     0.250000000000     0.315400000000     0          
C3       C      0.927633333333     0.239033333333     0.324366666667     0          
H1       H      0.934966666667     0.231700000000     0.318400000000     0          
Zn1      Zn     0.735533333333     0.097800000000     0.068866666667     0          
O2       O      0.711333333333     0.093966666667     0.072700000000     0          
C1       C      0.703766666667     0.083333333333     0.083333333333     0          
C2       C      0.684600000000     0.083333333333     0.083333333333     0          
C3       C      0.675633333333     0.094300000000     0.072366666667     0          
H1       H      0.681600000000     0.101633333333     0.065033333333     0          
Zn1      Zn     0.902200000000     0.068866666667     0.068866666667     0          
O2       O      0.906033333333     0.044666666667     0.072700000000     0          
C1       C      0.916666666667     0.037100000000     0.083333333333     0          
C2       C      0.916666666667     0.017933333333     0.083333333333     0          
C3       C      0.905700000000     0.008966666667     0.072366666667     0          
H1       H      0.898366666667     0.014933333333     0.065033333333     0          
Zn1      Zn     0.931133333333     0.235533333333     0.068866666667     0          
O2       O      0.955333333333     0.239366666667     0.072700000000     0          
C1       C      0.962900000000     0.250000000000     0.083333333333     0          
C2       C      0.982066666667     0.250000000000     0.083333333333     0          
C3       C      0.991033333333     0.239033333333     0.072366666667     0          
H1       H      0.985066666667     0.231700000000     0.065033333333     0          
Zn1      Zn     0.764466666667     0.264466666667     0.068866666667     0          
O2       O      0.760633333333     0.288666666667     0.072700000000     0          
C1       C      0.750000000000     0.296233333333     0.083333333333     0          
C2       C      0.750000000000     0.315400000000     0.083333333333     0          
C3       C      0.760966666667     0.324366666667     0.072366666667     0          
H1       H      0.768300000000     0.318400000000     0.065033333333     0          
Zn1      Zn     0.735533333333     0.235533333333     0.264466666667     0          
O2       O      0.711333333333     0.239366666667     0.260633333333     0          
C1       C      0.703766666667     0.250000000000     0.250000000000     0          
C2       C      0.684600000000     0.250000000000     0.250000000000     0          
C3       C      0.675633333333     0.239033333333     0.260966666667     0          
H1       H      0.681600000000     0.231700000000     0.268300000000     0          
Zn1      Zn     0.764466666667     0.068866666667     0.264466666667     0          
O2       O      0.760633333333     0.044666666667     0.260633333333     0          
C1       C      0.750000000000     0.037100000000     0.250000000000     0          
C2       C      0.750000000000     0.017933333333     0.250000000000     0          
C3       C      0.760966666667     0.008966666667     0.260966666667     0          
H1       H      0.768300000000     0.014933333333     0.268300000000     0          
Zn1      Zn     0.931133333333     0.097800000000     0.264466666667     0          
O2       O      0.955333333333     0.093966666667     0.260633333333     0          
C1       C      0.962900000000     0.083333333333     0.250000000000     0          
C2       C      0.982066666667     0.083333333333     0.250000000000     0          
C3       C      0.991033333333     0.094300000000     0.260966666667     0          
H1       H      0.985066666667     0.101633333333     0.268300000000     0          
Zn1      Zn     0.902200000000     0.264466666667     0.264466666667     0          
O2       O      0.906033333333     0.288666666667     0.260633333333     0          
C1       C      0.916666666667     0.296233333333     0.250000000000     0          
C2       C      0.916666666667     0.315400000000     0.250000000000     0          
C3       C      0.905700000000     0.324366666667     0.260966666667     0          
H1       H      0.898366666667     0.318400000000     0.268300000000     0          
Zn1      Zn     0.735533333333     0.068866666667     0.097800000000     0          
O2       O      0.739366666667     0.044666666667     0.093966666667     0          
C1       C      0.750000000000     0.037100000000     0.083333333333     0          
C2       C      0.750000000000     0.017933333333     0.083333333333     0          
C3       C      0.739033333333     0.008966666667     0.094300000000     0          
H1       H      0.731700000000     0.014933333333     0.101633333333     0          
Zn1      Zn     0.735533333333     0.264466666667     0.235533333333     0          
O2       O      0.739366666667     0.288666666667     0.239366666667     0          
C1       C      0.750000000000     0.296233333333     0.250000000000     0          
C2       C      0.750000000000     0.315400000000     0.250000000000     0          
C3       C      0.739033333333     0.324366666667     0.239033333333     0          
H1       H      0.731700000000     0.318400000000     0.231700000000     0          
Zn1      Zn     0.735533333333     0.068866666667     0.235533333333     0          
O2       O      0.711333333333     0.072700000000     0.239366666667     0          
C1       C      0.703766666667     0.083333333333     0.250000000000     0          
C2       C      0.684600000000     0.083333333333     0.250000000000     0          
C3       C      0.675633333333     0.072366666667     0.239033333333     0          
H1       H      0.681600000000     0.065033333333     0.231700000000     0          
Zn1      Zn     0.931133333333     0.068866666667     0.235533333333     0          
O2       O      0.927300000000     0.044666666667     0.239366666667     0          
C1       C      0.916666666667     0.037100000000     0.250000000000     0          
C2       C      0.916666666667     0.017933333333     0.250000000000     0          
C3       C      0.927633333333     0.008966666667     0.239033333333     0          
H1       H      0.934966666667     0.014933333333     0.231700000000     0          
Zn1      Zn     0.931133333333     0.264466666667     0.235533333333     0          
O2       O      0.955333333333     0.260633333333     0.239366666667     0          
C1       C      0.962900000000     0.250000000000     0.250000000000     0          
C2       C      0.982066666667     0.250000000000     0.250000000000     0          
C3       C      0.991033333333     0.260966666667     0.239033333333     0          
H1       H      0.985066666667     0.268300000000     0.231700000000     0          
Zn1      Zn     0.931133333333     0.264466666667     0.097800000000     0          
O2       O      0.927300000000     0.288666666667     0.093966666667     0          
C1       C      0.916666666667     0.296233333333     0.083333333333     0          
C2       C      0.916666666667     0.315400000000     0.083333333333     0          
C3       C      0.927633333333     0.324366666667     0.094300000000     0          
H1       H      0.934966666667     0.318400000000     0.101633333333     0          
Zn1      Zn     0.735533333333     0.264466666667     0.097800000000     0          
O2       O      0.711333333333     0.260633333333     0.093966666667     0          
C1       C      0.703766666667     0.250000000000     0.083333333333     0          
C2       C      0.684600000000     0.250000000000     0.083333333333     0          
C3       C      0.675633333333     0.260966666667     0.094300000000     0          
H1       H      0.681600000000     0.268300000000     0.101633333333     0          
Zn1      Zn     0.931133333333     0.068866666667     0.097800000000     0          
O2       O      0.955333333333     0.072700000000     0.093966666667     0          
C1       C      0.962900000000     0.083333333333     0.083333333333     0          
C2       C      0.982066666667     0.083333333333     0.083333333333     0          
C3       C      0.991033333333     0.072366666667     0.094300000000     0          
H1       H      0.985066666667     0.065033333333     0.101633333333     0          
O2       O      0.906033333333     0.260633333333     0.288666666667     0          
C3       C      0.905700000000     0.260966666667     0.324366666667     0          
H1       H      0.898366666667     0.268300000000     0.318400000000     0          
O2       O      0.739366666667     0.239366666667     0.288666666667     0          
C3       C      0.739033333333     0.239033333333     0.324366666667     0          
H1       H      0.731700000000     0.231700000000     0.318400000000     0          
O2       O      0.760633333333     0.072700000000     0.288666666667     0          
C3       C      0.760966666667     0.072366666667     0.324366666667     0          
H1       H      0.768300000000     0.065033333333     0.318400000000     0          
O2       O      0.927300000000     0.093966666667     0.288666666667     0          
C3       C      0.927633333333     0.094300000000     0.324366666667     0          
H1       H      0.934966666667     0.101633333333     0.318400000000     0          
O2       O      0.906033333333     0.072700000000     0.044666666667     0          
C3       C      0.905700000000     0.072366666667     0.008966666667     0          
H1       H      0.898366666667     0.065033333333     0.014933333333     0          
O2       O      0.927300000000     0.239366666667     0.044666666667     0          
C3       C      0.927633333333     0.239033333333     0.008966666667     0          
H1       H      0.934966666667     0.231700000000     0.014933333333     0          
O2       O      0.760633333333     0.260633333333     0.044666666667     0          
C3       C      0.760966666667     0.260966666667     0.008966666667     0          
H1       H      0.768300000000     0.268300000000     0.014933333333     0          
O2       O      0.739366666667     0.093966666667     0.044666666667     0          
C3       C      0.739033333333     0.094300000000     0.008966666667     0          
H1       H      0.731700000000     0.101633333333     0.014933333333     0          
O2       O      0.955333333333     0.239366666667     0.260633333333     0          
C3       C      0.991033333333     0.239033333333     0.260966666667     0          
H1       H      0.985066666667     0.231700000000     0.268300000000     0          
O2       O      0.760633333333     0.288666666667     0.260633333333     0          
C3       C      0.760966666667     0.324366666667     0.260966666667     0          
H1       H      0.768300000000     0.318400000000     0.268300000000     0          
O2       O      0.711333333333     0.093966666667     0.260633333333     0          
C3       C      0.675633333333     0.094300000000     0.260966666667     0          
H1       H      0.681600000000     0.101633333333     0.268300000000     0          
O2       O      0.906033333333     0.044666666667     0.260633333333     0          
C3       C      0.905700000000     0.008966666667     0.260966666667     0          
H1       H      0.898366666667     0.014933333333     0.268300000000     0          
O2       O      0.955333333333     0.093966666667     0.072700000000     0          
C3       C      0.991033333333     0.094300000000     0.072366666667     0          
H1       H      0.985066666667     0.101633333333     0.065033333333     0          
O2       O      0.906033333333     0.288666666667     0.072700000000     0          
C3       C      0.905700000000     0.324366666667     0.072366666667     0          
H1       H      0.898366666667     0.318400000000     0.065033333333     0          
O2       O      0.711333333333     0.239366666667     0.072700000000     0          
C3       C      0.675633333333     0.239033333333     0.072366666667     0          
H1       H      0.681600000000     0.231700000000     0.065033333333     0          
O2       O      0.760633333333     0.044666666667     0.072700000000     0          
C3       C      0.760966666667     0.008966666667     0.072366666667     0          
H1       H      0.768300000000     0.014933333333     0.065033333333     0          
O2       O      0.927300000000     0.288666666667     0.239366666667     0          
C3       C      0.927633333333     0.324366666667     0.239033333333     0          
H1       H      0.934966666667     0.318400000000     0.231700000000     0          
O2       O      0.927300000000     0.044666666667     0.093966666667     0          
C3       C      0.927633333333     0.008966666667     0.094300000000     0          
H1       H      0.934966666667     0.014933333333     0.101633333333     0          
O2       O      0.955333333333     0.260633333333     0.093966666667     0          
C3       C      0.991033333333     0.260966666667     0.094300000000     0          
H1       H      0.985066666667     0.268300000000     0.101633333333     0          
O2       O      0.739366666667     0.288666666667     0.093966666667     0          
C3       C      0.739033333333     0.324366666667     0.094300000000     0          
H1       H      0.731700000000     0.318400000000     0.101633333333     0          
O2       O      0.711333333333     0.072700000000     0.093966666667     0          
C3       C      0.675633333333     0.072366666667     0.094300000000     0          
H1       H      0.681600000000     0.065033333333     0.101633333333     0          
O2       O      0.739366666667     0.044666666667     0.239366666667     0          
C3       C      0.739033333333     0.008966666667     0.239033333333     0          
H1       H      0.731700000000     0.014933333333     0.231700000000     0          
O2       O      0.955333333333     0.072700000000     0.239366666667     0          
C3       C      0.991033333333     0.072366666667     0.239033333333     0          
H1       H      0.985066666667     0.065033333333     0.231700000000     0          
O2       O      0.711333333333     0.260633333333     0.239366666667     0          
C3       C      0.675633333333     0.260966666667     0.239033333333     0          
H1       H      0.681600000000     0.268300000000     0.231700000000     0          
Zn1      Zn     0.764466666667     0.235533333333     0.235533333333     0          
O2       O      0.760633333333     0.239366666667     0.211333333333     0          
C1       C      0.750000000000     0.250000000000     0.203766666667     0          
C2       C      0.750000000000     0.250000000000     0.184600000000     0          
C3       C      0.760966666667     0.239033333333     0.175633333333     0          
H1       H      0.768300000000     0.231700000000     0.181600000000     0          
O2       O      0.927300000000     0.260633333333     0.211333333333     0          
C1       C      0.916666666667     0.250000000000     0.203766666667     0          
C2       C      0.916666666667     0.250000000000     0.184600000000     0          
C3       C      0.927633333333     0.260966666667     0.175633333333     0          
H1       H      0.934966666667     0.268300000000     0.181600000000     0          
Zn1      Zn     0.902200000000     0.097800000000     0.235533333333     0          
O2       O      0.906033333333     0.093966666667     0.211333333333     0          
C1       C      0.916666666667     0.083333333333     0.203766666667     0          
C2       C      0.916666666667     0.083333333333     0.184600000000     0          
C3       C      0.905700000000     0.094300000000     0.175633333333     0          
H1       H      0.898366666667     0.101633333333     0.181600000000     0          
O2       O      0.739366666667     0.072700000000     0.211333333333     0          
C1       C      0.750000000000     0.083333333333     0.203766666667     0          
C2       C      0.750000000000     0.083333333333     0.184600000000     0          
C3       C      0.739033333333     0.072366666667     0.175633333333     0          
H1       H      0.731700000000     0.065033333333     0.181600000000     0          
Zn1      Zn     0.764466666667     0.097800000000     0.097800000000     0          
O2       O      0.760633333333     0.093966666667     0.122000000000     0          
C1       C      0.750000000000     0.083333333333     0.129566666667     0          
C2       C      0.750000000000     0.083333333333     0.148733333333     0          
C3       C      0.760966666667     0.094300000000     0.157700000000     0          
H1       H      0.768300000000     0.101633333333     0.151733333333     0          
O2       O      0.739366666667     0.260633333333     0.122000000000     0          
C1       C      0.750000000000     0.250000000000     0.129566666667     0          
C2       C      0.750000000000     0.250000000000     0.148733333333     0          
C3       C      0.739033333333     0.260966666667     0.157700000000     0          
H1       H      0.731700000000     0.268300000000     0.151733333333     0          
Zn1      Zn     0.902200000000     0.235533333333     0.097800000000     0          
O2       O      0.906033333333     0.239366666667     0.122000000000     0          
C1       C      0.916666666667     0.250000000000     0.129566666667     0          
C2       C      0.916666666667     0.250000000000     0.148733333333     0          
C3       C      0.905700000000     0.239033333333     0.157700000000     0          
H1       H      0.898366666667     0.231700000000     0.151733333333     0          
O2       O      0.927300000000     0.072700000000     0.122000000000     0          
C1       C      0.916666666667     0.083333333333     0.129566666667     0          
C2       C      0.916666666667     0.083333333333     0.148733333333     0          
C3       C      0.927633333333     0.072366666667     0.157700000000     0          
H1       H      0.934966666667     0.065033333333     0.151733333333     0          
Zn1      Zn     0.902200000000     0.235533333333     0.235533333333     0          
O2       O      0.906033333333     0.211333333333     0.239366666667     0          
C1       C      0.916666666667     0.203766666667     0.250000000000     0          
C2       C      0.916666666667     0.184600000000     0.250000000000     0          
C3       C      0.905700000000     0.175633333333     0.239033333333     0          
H1       H      0.898366666667     0.181600000000     0.231700000000     0          
Zn1      Zn     0.764466666667     0.097800000000     0.235533333333     0          
O2       O      0.760633333333     0.122000000000     0.239366666667     0          
C1       C      0.750000000000     0.129566666667     0.250000000000     0          
C2       C      0.750000000000     0.148733333333     0.250000000000     0          
C3       C      0.760966666667     0.157700000000     0.239033333333     0          
H1       H      0.768300000000     0.151733333333     0.231700000000     0          
Zn1      Zn     0.764466666667     0.235533333333     0.097800000000     0          
O2       O      0.760633333333     0.211333333333     0.093966666667     0          
C1       C      0.750000000000     0.203766666667     0.083333333333     0          
C2       C      0.750000000000     0.184600000000     0.083333333333     0          
C3       C      0.760966666667     0.175633333333     0.094300000000     0          
H1       H      0.768300000000     0.181600000000     0.101633333333     0          
Zn1      Zn     0.902200000000     0.097800000000     0.097800000000     0          
O2       O      0.906033333333     0.122000000000     0.093966666667     0          
C1       C      0.916666666667     0.129566666667     0.083333333333     0          
C2       C      0.916666666667     0.148733333333     0.083333333333     0          
C3       C      0.905700000000     0.157700000000     0.094300000000     0          
H1       H      0.898366666667     0.151733333333     0.101633333333     0          
O2       O      0.739366666667     0.211333333333     0.260633333333     0          
C1       C      0.750000000000     0.203766666667     0.250000000000     0          
C2       C      0.750000000000     0.184600000000     0.250000000000     0          
C3       C      0.739033333333     0.175633333333     0.260966666667     0          
H1       H      0.731700000000     0.181600000000     0.268300000000     0          
O2       O      0.739366666667     0.122000000000     0.072700000000     0          
C1       C      0.750000000000     0.129566666667     0.083333333333     0          
C2       C      0.750000000000     0.148733333333     0.083333333333     0          
C3       C      0.739033333333     0.157700000000     0.072366666667     0          
H1       H      0.731700000000     0.151733333333     0.065033333333     0          
O2       O      0.927300000000     0.211333333333     0.072700000000     0          
C1       C      0.916666666667     0.203766666667     0.083333333333     0          
C2       C      0.916666666667     0.184600000000     0.083333333333     0          
C3       C      0.927633333333     0.175633333333     0.072366666667     0          
H1       H      0.934966666667     0.181600000000     0.065033333333     0          
O2       O      0.927300000000     0.122000000000     0.260633333333     0          
C1       C      0.916666666667     0.129566666667     0.250000000000     0          
C2       C      0.916666666667     0.148733333333     0.250000000000     0          
C3       C      0.927633333333     0.157700000000     0.260966666667     0          
H1       H      0.934966666667     0.151733333333     0.268300000000     0          
O2       O      0.906033333333     0.093966666667     0.122000000000     0          
C3       C      0.905700000000     0.094300000000     0.157700000000     0          
H1       H      0.898366666667     0.101633333333     0.151733333333     0          
O2       O      0.739366666667     0.072700000000     0.122000000000     0          
C3       C      0.739033333333     0.072366666667     0.157700000000     0          
H1       H      0.731700000000     0.065033333333     0.151733333333     0          
O2       O      0.760633333333     0.239366666667     0.122000000000     0          
C3       C      0.760966666667     0.239033333333     0.157700000000     0          
H1       H      0.768300000000     0.231700000000     0.151733333333     0          
O2       O      0.927300000000     0.260633333333     0.122000000000     0          
C3       C      0.927633333333     0.260966666667     0.157700000000     0          
H1       H      0.934966666667     0.268300000000     0.151733333333     0          
O2       O      0.906033333333     0.239366666667     0.211333333333     0          
C3       C      0.905700000000     0.239033333333     0.175633333333     0          
H1       H      0.898366666667     0.231700000000     0.181600000000     0          
O2       O      0.927300000000     0.072700000000     0.211333333333     0          
C3       C      0.927633333333     0.072366666667     0.175633333333     0          
H1       H      0.934966666667     0.065033333333     0.181600000000     0          
O2       O      0.760633333333     0.093966666667     0.211333333333     0          
C3       C      0.760966666667     0.094300000000     0.175633333333     0          
H1       H      0.768300000000     0.101633333333     0.181600000000     0          
O2       O      0.739366666667     0.260633333333     0.211333333333     0          
C3       C      0.739033333333     0.260966666667     0.175633333333     0          
H1       H      0.731700000000     0.268300000000     0.181600000000     0          
O2       O      0.760633333333     0.122000000000     0.093966666667     0          
C3       C      0.760966666667     0.157700000000     0.094300000000     0          
H1       H      0.768300000000     0.151733333333     0.101633333333     0          
O2       O      0.906033333333     0.211333333333     0.093966666667     0          
C3       C      0.905700000000     0.175633333333     0.094300000000     0          
H1       H      0.898366666667     0.181600000000     0.101633333333     0          
O2       O      0.906033333333     0.122000000000     0.239366666667     0          
C3       C      0.905700000000     0.157700000000     0.239033333333     0          
H1       H      0.898366666667     0.151733333333     0.231700000000     0          
O2       O      0.760633333333     0.211333333333     0.239366666667     0          
C3       C      0.760966666667     0.175633333333     0.239033333333     0          
H1       H      0.768300000000     0.181600000000     0.231700000000     0          
O2       O      0.927300000000     0.122000000000     0.072700000000     0          
C3       C      0.927633333333     0.157700000000     0.072366666667     0          
H1       H      0.934966666667     0.151733333333     0.065033333333     0          
O2       O      0.927300000000     0.211333333333     0.260633333333     0          
C3       C      0.927633333333     0.175633333333     0.260966666667     0          
H1       H      0.934966666667     0.181600000000     0.268300000000     0          
O2       O      0.739366666667     0.122000000000     0.260633333333     0          
C3       C      0.739033333333     0.157700000000     0.260966666667     0          
H1       H      0.731700000000     0.151733333333     0.268300000000     0          
O2       O      0.739366666667     0.211333333333     0.072700000000     0          
C3       C      0.739033333333     0.175633333333     0.072366666667     0          
H1       H      0.731700000000     0.181600000000     0.065033333333     0          
O2       O      0.878000000000     0.093966666667     0.239366666667     0          
C1       C      0.870433333333     0.083333333333     0.250000000000     0          
C2       C      0.851266666667     0.083333333333     0.250000000000     0          
C3       C      0.842300000000     0.094300000000     0.239033333333     0          
H1       H      0.848266666667     0.101633333333     0.231700000000     0          
O2       O      0.788666666667     0.239366666667     0.239366666667     0          
C1       C      0.796233333333     0.250000000000     0.250000000000     0          
C2       C      0.815400000000     0.250000000000     0.250000000000     0          
C3       C      0.824366666667     0.239033333333     0.239033333333     0          
H1       H      0.818400000000     0.231700000000     0.231700000000     0          
O2       O      0.878000000000     0.239366666667     0.093966666667     0          
C1       C      0.870433333333     0.250000000000     0.083333333333     0          
C2       C      0.851266666667     0.250000000000     0.083333333333     0          
C3       C      0.842300000000     0.239033333333     0.094300000000     0          
H1       H      0.848266666667     0.231700000000     0.101633333333     0          
O2       O      0.788666666667     0.093966666667     0.093966666667     0          
C1       C      0.796233333333     0.083333333333     0.083333333333     0          
C2       C      0.815400000000     0.083333333333     0.083333333333     0          
C3       C      0.824366666667     0.094300000000     0.094300000000     0          
H1       H      0.818400000000     0.101633333333     0.101633333333     0          
O2       O      0.878000000000     0.072700000000     0.072700000000     0          
C1       C      0.870433333333     0.083333333333     0.083333333333     0          
C2       C      0.851266666667     0.083333333333     0.083333333333     0          
C3       C      0.842300000000     0.072366666667     0.072366666667     0          
H1       H      0.848266666667     0.065033333333     0.065033333333     0          
O2       O      0.788666666667     0.260633333333     0.072700000000     0          
C1       C      0.796233333333     0.250000000000     0.083333333333     0          
C2       C      0.815400000000     0.250000000000     0.083333333333     0          
C3       C      0.824366666667     0.260966666667     0.072366666667     0          
H1       H      0.818400000000     0.268300000000     0.065033333333     0          
O2       O      0.878000000000     0.260633333333     0.260633333333     0          
C1       C      0.870433333333     0.250000000000     0.250000000000     0          
C2       C      0.851266666667     0.250000000000     0.250000000000     0          
C3       C      0.842300000000     0.260966666667     0.260966666667     0          
H1       H      0.848266666667     0.268300000000     0.268300000000     0          
O2       O      0.788666666667     0.072700000000     0.260633333333     0          
C1       C      0.796233333333     0.083333333333     0.250000000000     0          
C2       C      0.815400000000     0.083333333333     0.250000000000     0          
C3       C      0.824366666667     0.072366666667     0.260966666667     0          
H1       H      0.818400000000     0.065033333333     0.268300000000     0          
O2       O      0.788666666667     0.239366666667     0.093966666667     0          
C3       C      0.824366666667     0.239033333333     0.094300000000     0          
H1       H      0.818400000000     0.231700000000     0.101633333333     0          
O2       O      0.878000000000     0.093966666667     0.093966666667     0          
C3       C      0.842300000000     0.094300000000     0.094300000000     0          
H1       H      0.848266666667     0.101633333333     0.101633333333     0          
O2       O      0.788666666667     0.093966666667     0.239366666667     0          
C3       C      0.824366666667     0.094300000000     0.239033333333     0          
H1       H      0.818400000000     0.101633333333     0.231700000000     0          
O2       O      0.878000000000     0.239366666667     0.239366666667     0          
C3       C      0.842300000000     0.239033333333     0.239033333333     0          
H1       H      0.848266666667     0.231700000000     0.231700000000     0          
O2       O      0.788666666667     0.260633333333     0.260633333333     0          
C3       C      0.824366666667     0.260966666667     0.260966666667     0          
H1       H      0.818400000000     0.268300000000     0.268300000000     0          
O2       O      0.878000000000     0.072700000000     0.260633333333     0          
C3       C      0.842300000000     0.072366666667     0.260966666667     0          
H1       H      0.848266666667     0.065033333333     0.268300000000     0          
O2       O      0.788666666667     0.072700000000     0.072700000000     0          
C3       C      0.824366666667     0.072366666667     0.072366666667     0          
H1       H      0.818400000000     0.065033333333     0.065033333333     0          
O2       O      0.878000000000     0.260633333333     0.072700000000     0          
C3       C      0.842300000000     0.260966666667     0.072366666667     0          
H1       H      0.848266666667     0.268300000000     0.065033333333     0          
Zn1      Zn     0.764466666667     0.068866666667     0.402200000000     0          
O1       O      0.750000000000     0.083333333333     0.416666666667     0          
O2       O      0.760633333333     0.072700000000     0.378000000000     0          
C1       C      0.750000000000     0.083333333333     0.370433333333     0          
C2       C      0.750000000000     0.083333333333     0.351266666667     0          
C3       C      0.760966666667     0.072366666667     0.342300000000     0          
H1       H      0.768300000000     0.065033333333     0.348266666667     0          
Zn1      Zn     0.931133333333     0.097800000000     0.402200000000     0          
O1       O      0.916666666667     0.083333333333     0.416666666667     0          
O2       O      0.927300000000     0.093966666667     0.378000000000     0          
C1       C      0.916666666667     0.083333333333     0.370433333333     0          
C2       C      0.916666666667     0.083333333333     0.351266666667     0          
C3       C      0.927633333333     0.094300000000     0.342300000000     0          
H1       H      0.934966666667     0.101633333333     0.348266666667     0          
Zn1      Zn     0.902200000000     0.264466666667     0.402200000000     0          
O1       O      0.916666666667     0.250000000000     0.416666666667     0          
O2       O      0.906033333333     0.260633333333     0.378000000000     0          
C1       C      0.916666666667     0.250000000000     0.370433333333     0          
C2       C      0.916666666667     0.250000000000     0.351266666667     0          
C3       C      0.905700000000     0.260966666667     0.342300000000     0          
H1       H      0.898366666667     0.268300000000     0.348266666667     0          
Zn1      Zn     0.735533333333     0.235533333333     0.402200000000     0          
O1       O      0.750000000000     0.250000000000     0.416666666667     0          
O2       O      0.739366666667     0.239366666667     0.378000000000     0          
C1       C      0.750000000000     0.250000000000     0.370433333333     0          
C2       C      0.750000000000     0.250000000000     0.351266666667     0          
C3       C      0.739033333333     0.239033333333     0.342300000000     0          
H1       H      0.731700000000     0.231700000000     0.348266666667     0          
Zn1      Zn     0.764466666667     0.264466666667     0.597800000000     0          
O1       O      0.750000000000     0.250000000000     0.583333333333     0          
O2       O      0.760633333333     0.260633333333     0.622000000000     0          
C1       C      0.750000000000     0.250000000000     0.629566666667     0          
C2       C      0.750000000000     0.250000000000     0.648733333333     0          
C3       C      0.760966666667     0.260966666667     0.657700000000     0          
H1       H      0.768300000000     0.268300000000     0.651733333333     0          
Zn1      Zn     0.735533333333     0.097800000000     0.597800000000     0          
O1       O      0.750000000000     0.083333333333     0.583333333333     0          
O2       O      0.739366666667     0.093966666667     0.622000000000     0          
C1       C      0.750000000000     0.083333333333     0.629566666667     0          
C2       C      0.750000000000     0.083333333333     0.648733333333     0          
C3       C      0.739033333333     0.094300000000     0.657700000000     0          
H1       H      0.731700000000     0.101633333333     0.651733333333     0          
Zn1      Zn     0.902200000000     0.068866666667     0.597800000000     0          
O1       O      0.916666666667     0.083333333333     0.583333333333     0          
O2       O      0.906033333333     0.072700000000     0.622000000000     0          
C1       C      0.916666666667     0.083333333333     0.629566666667     0          
C2       C      0.916666666667     0.083333333333     0.648733333333     0          
C3       C      0.905700000000     0.072366666667     0.657700000000     0          
H1       H      0.898366666667     0.065033333333     0.651733333333     0          
Zn1      Zn     0.931133333333     0.235533333333     0.597800000000     0          
O1       O      0.916666666667     0.250000000000     0.583333333333     0          
O2       O      0.927300000000     0.239366666667     0.622000000000     0          
C1       C      0.916666666667     0.250000000000     0.629566666667     0          
C2       C      0.916666666667     0.250000000000     0.648733333333     0          
C3       C      0.927633333333     0.239033333333     0.657700000000     0          
H1       H      0.934966666667     0.231700000000     0.651733333333     0          
Zn1      Zn     0.735533333333     0.097800000000     0.402200000000     0          
O2       O      0.711333333333     0.093966666667     0.406033333333     0          
C1       C      0.703766666667     0.083333333333     0.416666666667     0          
C2       C      0.684600000000     0.083333333333     0.416666666667     0          
C3       C      0.675633333333     0.094300000000     0.405700000000     0          
H1       H      0.681600000000     0.101633333333     0.398366666667     0          
Zn1      Zn     0.902200000000     0.068866666667     0.402200000000     0          
O2       O      0.906033333333     0.044666666667     0.406033333333     0          
C1       C      0.916666666667     0.037100000000     0.416666666667     0          
C2       C      0.916666666667     0.017933333333     0.416666666667     0          
C3       C      0.905700000000     0.008966666667     0.405700000000     0          
H1       H      0.898366666667     0.014933333333     0.398366666667     0          
Zn1      Zn     0.931133333333     0.235533333333     0.402200000000     0          
O2       O      0.955333333333     0.239366666667     0.406033333333     0          
C1       C      0.962900000000     0.250000000000     0.416666666667     0          
C2       C      0.982066666667     0.250000000000     0.416666666667     0          
C3       C      0.991033333333     0.239033333333     0.405700000000     0          
H1       H      0.985066666667     0.231700000000     0.398366666667     0          
Zn1      Zn     0.764466666667     0.264466666667     0.402200000000     0          
O2       O      0.760633333333     0.288666666667     0.406033333333     0          
C1       C      0.750000000000     0.296233333333     0.416666666667     0          
C2       C      0.750000000000     0.315400000000     0.416666666667     0          
C3       C      0.760966666667     0.324366666667     0.405700000000     0          
H1       H      0.768300000000     0.318400000000     0.398366666667     0          
Zn1      Zn     0.735533333333     0.235533333333     0.597800000000     0          
O2       O      0.711333333333     0.239366666667     0.593966666667     0          
C1       C      0.703766666667     0.250000000000     0.583333333333     0          
C2       C      0.684600000000     0.250000000000     0.583333333333     0          
C3       C      0.675633333333     0.239033333333     0.594300000000     0          
H1       H      0.681600000000     0.231700000000     0.601633333333     0          
Zn1      Zn     0.764466666667     0.068866666667     0.597800000000     0          
O2       O      0.760633333333     0.044666666667     0.593966666667     0          
C1       C      0.750000000000     0.037100000000     0.583333333333     0          
C2       C      0.750000000000     0.017933333333     0.583333333333     0          
C3       C      0.760966666667     0.008966666667     0.594300000000     0          
H1       H      0.768300000000     0.014933333333     0.601633333333     0          
Zn1      Zn     0.931133333333     0.097800000000     0.597800000000     0          
O2       O      0.955333333333     0.093966666667     0.593966666667     0          
C1       C      0.962900000000     0.083333333333     0.583333333333     0          
C2       C      0.982066666667     0.083333333333     0.583333333333     0          
C3       C      0.991033333333     0.094300000000     0.594300000000     0          
H1       H      0.985066666667     0.101633333333     0.601633333333     0          
Zn1      Zn     0.902200000000     0.264466666667     0.597800000000     0          
O2       O      0.906033333333     0.288666666667     0.593966666667     0          
C1       C      0.916666666667     0.296233333333     0.583333333333     0          
C2       C      0.916666666667     0.315400000000     0.583333333333     0          
C3       C      0.905700000000     0.324366666667     0.594300000000     0          
H1       H      0.898366666667     0.318400000000     0.601633333333     0          
Zn1      Zn     0.735533333333     0.068866666667     0.431133333333     0          
O2       O      0.739366666667     0.044666666667     0.427300000000     0          
C1       C      0.750000000000     0.037100000000     0.416666666667     0          
C2       C      0.750000000000     0.017933333333     0.416666666667     0          
C3       C      0.739033333333     0.008966666667     0.427633333333     0          
H1       H      0.731700000000     0.014933333333     0.434966666667     0          
Zn1      Zn     0.735533333333     0.264466666667     0.568866666667     0          
O2       O      0.739366666667     0.288666666667     0.572700000000     0          
C1       C      0.750000000000     0.296233333333     0.583333333333     0          
C2       C      0.750000000000     0.315400000000     0.583333333333     0          
C3       C      0.739033333333     0.324366666667     0.572366666667     0          
H1       H      0.731700000000     0.318400000000     0.565033333333     0          
Zn1      Zn     0.735533333333     0.068866666667     0.568866666667     0          
O2       O      0.711333333333     0.072700000000     0.572700000000     0          
C1       C      0.703766666667     0.083333333333     0.583333333333     0          
C2       C      0.684600000000     0.083333333333     0.583333333333     0          
C3       C      0.675633333333     0.072366666667     0.572366666667     0          
H1       H      0.681600000000     0.065033333333     0.565033333333     0          
Zn1      Zn     0.931133333333     0.068866666667     0.568866666667     0          
O2       O      0.927300000000     0.044666666667     0.572700000000     0          
C1       C      0.916666666667     0.037100000000     0.583333333333     0          
C2       C      0.916666666667     0.017933333333     0.583333333333     0          
C3       C      0.927633333333     0.008966666667     0.572366666667     0          
H1       H      0.934966666667     0.014933333333     0.565033333333     0          
Zn1      Zn     0.931133333333     0.264466666667     0.568866666667     0          
O2       O      0.955333333333     0.260633333333     0.572700000000     0          
C1       C      0.962900000000     0.250000000000     0.583333333333     0          
C2       C      0.982066666667     0.250000000000     0.583333333333     0          
C3       C      0.991033333333     0.260966666667     0.572366666667     0          
H1       H      0.985066666667     0.268300000000     0.565033333333     0          
Zn1      Zn     0.931133333333     0.264466666667     0.431133333333     0          
O2       O      0.927300000000     0.288666666667     0.427300000000     0          
C1       C      0.916666666667     0.296233333333     0.416666666667     0          
C2       C      0.916666666667     0.315400000000     0.416666666667     0          
C3       C      0.927633333333     0.324366666667     0.427633333333     0          
H1       H      0.934966666667     0.318400000000     0.434966666667     0          
Zn1      Zn     0.735533333333     0.264466666667     0.431133333333     0          
O2       O      0.711333333333     0.260633333333     0.427300000000     0          
C1       C      0.703766666667     0.250000000000     0.416666666667     0          
C2       C      0.684600000000     0.250000000000     0.416666666667     0          
C3       C      0.675633333333     0.260966666667     0.427633333333     0          
H1       H      0.681600000000     0.268300000000     0.434966666667     0          
Zn1      Zn     0.931133333333     0.068866666667     0.431133333333     0          
O2       O      0.955333333333     0.072700000000     0.427300000000     0          
C1       C      0.962900000000     0.083333333333     0.416666666667     0          
C2       C      0.982066666667     0.083333333333     0.416666666667     0          
C3       C      0.991033333333     0.072366666667     0.427633333333     0          
H1       H      0.985066666667     0.065033333333     0.434966666667     0          
O2       O      0.906033333333     0.260633333333     0.622000000000     0          
C3       C      0.905700000000     0.260966666667     0.657700000000     0          
H1       H      0.898366666667     0.268300000000     0.651733333333     0          
O2       O      0.739366666667     0.239366666667     0.622000000000     0          
C3       C      0.739033333333     0.239033333333     0.657700000000     0          
H1       H      0.731700000000     0.231700000000     0.651733333333     0          
O2       O      0.760633333333     0.072700000000     0.622000000000     0          
C3       C      0.760966666667     0.072366666667     0.657700000000     0          
H1       H      0.768300000000     0.065033333333     0.651733333333     0          
O2       O      0.927300000000     0.093966666667     0.622000000000     0          
C3       C      0.927633333333     0.094300000000     0.657700000000     0          
H1       H      0.934966666667     0.101633333333     0.651733333333     0          
O2       O      0.906033333333     0.072700000000     0.378000000000     0          
C3       C      0.905700000000     0.072366666667     0.342300000000     0          
H1       H      0.898366666667     0.065033333333     0.348266666667     0          
O2       O      0.927300000000     0.239366666667     0.378000000000     0          
C3       C      0.927633333333     0.239033333333     0.342300000000     0          
H1       H      0.934966666667     0.231700000000     0.348266666667     0          
O2       O      0.760633333333     0.260633333333     0.378000000000     0          
C3       C      0.760966666667     0.260966666667     0.342300000000     0          
H1       H      0.768300000000     0.268300000000     0.348266666667     0          
O2       O      0.739366666667     0.093966666667     0.378000000000     0          
C3       C      0.739033333333     0.094300000000     0.342300000000     0          
H1       H      0.731700000000     0.101633333333     0.348266666667     0          
O2       O      0.955333333333     0.239366666667     0.593966666667     0          
C3       C      0.991033333333     0.239033333333     0.594300000000     0          
H1       H      0.985066666667     0.231700000000     0.601633333333     0          
O2       O      0.760633333333     0.288666666667     0.593966666667     0          
C3       C      0.760966666667     0.324366666667     0.594300000000     0          
H1       H      0.768300000000     0.318400000000     0.601633333333     0          
O2       O      0.711333333333     0.093966666667     0.593966666667     0          
C3       C      0.675633333333     0.094300000000     0.594300000000     0          
H1       H      0.681600000000     0.101633333333     0.601633333333     0          
O2       O      0.906033333333     0.044666666667     0.593966666667     0          
C3       C      0.905700000000     0.008966666667     0.594300000000     0          
H1       H      0.898366666667     0.014933333333     0.601633333333     0          
O2       O      0.955333333333     0.093966666667     0.406033333333     0          
C3       C      0.991033333333     0.094300000000     0.405700000000     0          
H1       H      0.985066666667     0.101633333333     0.398366666667     0          
O2       O      0.906033333333     0.288666666667     0.406033333333     0          
C3       C      0.905700000000     0.324366666667     0.405700000000     0          
H1       H      0.898366666667     0.318400000000     0.398366666667     0          
O2       O      0.711333333333     0.239366666667     0.406033333333     0          
C3       C      0.675633333333     0.239033333333     0.405700000000     0          
H1       H      0.681600000000     0.231700000000     0.398366666667     0          
O2       O      0.760633333333     0.044666666667     0.406033333333     0          
C3       C      0.760966666667     0.008966666667     0.405700000000     0          
H1       H      0.768300000000     0.014933333333     0.398366666667     0          
O2       O      0.927300000000     0.288666666667     0.572700000000     0          
C3       C      0.927633333333     0.324366666667     0.572366666667     0          
H1       H      0.934966666667     0.318400000000     0.565033333333     0          
O2       O      0.927300000000     0.044666666667     0.427300000000     0          
C3       C      0.927633333333     0.008966666667     0.427633333333     0          
H1       H      0.934966666667     0.014933333333     0.434966666667     0          
O2       O      0.955333333333     0.260633333333     0.427300000000     0          
C3       C      0.991033333333     0.260966666667     0.427633333333     0          
H1       H      0.985066666667     0.268300000000     0.434966666667     0          
O2       O      0.739366666667     0.288666666667     0.427300000000     0          
C3       C      0.739033333333     0.324366666667     0.427633333333     0          
H1       H      0.731700000000     0.318400000000     0.434966666667     0          
O2       O      0.711333333333     0.072700000000     0.427300000000     0          
C3       C      0.675633333333     0.072366666667     0.427633333333     0          
H1       H      0.681600000000     0.065033333333     0.434966666667     0          
O2       O      0.739366666667     0.044666666667     0.572700000000     0          
C3       C      0.739033333333     0.008966666667     0.572366666667     0          
H1       H      0.731700000000     0.014933333333     0.565033333333     0          
O2       O      0.955333333333     0.072700000000     0.572700000000     0          
C3       C      0.991033333333     0.072366666667     0.572366666667     0          
H1       H      0.985066666667     0.065033333333     0.565033333333     0          
O2       O      0.711333333333     0.260633333333     0.572700000000     0          
C3       C      0.675633333333     0.260966666667     0.572366666667     0          
H1       H      0.681600000000     0.268300000000     0.565033333333     0          
Zn1      Zn     0.764466666667     0.235533333333     0.568866666667     0          
O2       O      0.760633333333     0.239366666667     0.544666666667     0          
C1       C      0.750000000000     0.250000000000     0.537100000000     0          
C2       C      0.750000000000     0.250000000000     0.517933333333     0          
C3       C      0.760966666667     0.239033333333     0.508966666667     0          
H1       H      0.768300000000     0.231700000000     0.514933333333     0          
O2       O      0.927300000000     0.260633333333     0.544666666667     0          
C1       C      0.916666666667     0.250000000000     0.537100000000     0          
C2       C      0.916666666667     0.250000000000     0.517933333333     0          
C3       C      0.927633333333     0.260966666667     0.508966666667     0          
H1       H      0.934966666667     0.268300000000     0.514933333333     0          
Zn1      Zn     0.902200000000     0.097800000000     0.568866666667     0          
O2       O      0.906033333333     0.093966666667     0.544666666667     0          
C1       C      0.916666666667     0.083333333333     0.537100000000     0          
C2       C      0.916666666667     0.083333333333     0.517933333333     0          
C3       C      0.905700000000     0.094300000000     0.508966666667     0          
H1       H      0.898366666667     0.101633333333     0.514933333333     0          
O2       O      0.739366666667     0.072700000000     0.544666666667     0          
C1       C      0.750000000000     0.083333333333     0.537100000000     0          
C2       C      0.750000000000     0.083333333333     0.517933333333     0          
C3       C      0.739033333333     0.072366666667     0.508966666667     0          
H1       H      0.731700000000     0.065033333333     0.514933333333     0          
Zn1      Zn     0.764466666667     0.097800000000     0.431133333333     0          
O2       O      0.760633333333     0.093966666667     0.455333333333     0          
C1       C      0.750000000000     0.083333333333     0.462900000000     0          
C2       C      0.750000000000     0.083333333333     0.482066666667     0          
C3       C      0.760966666667     0.094300000000     0.491033333333     0          
H1       H      0.768300000000     0.101633333333     0.485066666667     0          
O2       O      0.739366666667     0.260633333333     0.455333333333     0          
C1       C      0.750000000000     0.250000000000     0.462900000000     0          
C2       C      0.750000000000     0.250000000000     0.482066666667     0          
C3       C      0.739033333333     0.260966666667     0.491033333333     0          
H1       H      0.731700000000     0.268300000000     0.485066666667     0          
Zn1      Zn     0.902200000000     0.235533333333     0.431133333333     0          
O2       O      0.906033333333     0.239366666667     0.455333333333     0          
C1       C      0.916666666667     0.250000000000     0.462900000000     0          
C2       C      0.916666666667     0.250000000000     0.482066666667     0          
C3       C      0.905700000000     0.239033333333     0.491033333333     0          
H1       H      0.898366666667     0.231700000000     0.485066666667     0          
O2       O      0.927300000000     0.072700000000     0.455333333333     0          
C1       C      0.916666666667     0.083333333333     0.462900000000     0          
C2       C      0.916666666667     0.083333333333     0.482066666667     0          
C3       C      0.927633333333     0.072366666667     0.491033333333     0          
H1       H      0.934966666667     0.065033333333     0.485066666667     0          
Zn1      Zn     0.902200000000     0.235533333333     0.568866666667     0          
O2       O      0.906033333333     0.211333333333     0.572700000000     0          
C1       C      0.916666666667     0.203766666667     0.583333333333     0          
C2       C      0.916666666667     0.184600000000     0.583333333333     0          
C3       C      0.905700000000     0.175633333333     0.572366666667     0          
H1       H      0.898366666667     0.181600000000     0.565033333333     0          
Zn1      Zn     0.764466666667     0.097800000000     0.568866666667     0          
O2       O      0.760633333333     0.122000000000     0.572700000000     0          
C1       C      0.750000000000     0.129566666667     0.583333333333     0          
C2       C      0.750000000000     0.148733333333     0.583333333333     0          
C3       C      0.760966666667     0.157700000000     0.572366666667     0          
H1       H      0.768300000000     0.151733333333     0.565033333333     0          
Zn1      Zn     0.764466666667     0.235533333333     0.431133333333     0          
O2       O      0.760633333333     0.211333333333     0.427300000000     0          
C1       C      0.750000000000     0.203766666667     0.416666666667     0          
C2       C      0.750000000000     0.184600000000     0.416666666667     0          
C3       C      0.760966666667     0.175633333333     0.427633333333     0          
H1       H      0.768300000000     0.181600000000     0.434966666667     0          
Zn1      Zn     0.902200000000     0.097800000000     0.431133333333     0          
O2       O      0.906033333333     0.122000000000     0.427300000000     0          
C1       C      0.916666666667     0.129566666667     0.416666666667     0          
C2       C      0.916666666667     0.148733333333     0.416666666667     0          
C3       C      0.905700000000     0.157700000000     0.427633333333     0          
H1       H      0.898366666667     0.151733333333     0.434966666667     0          
O2       O      0.739366666667     0.211333333333     0.593966666667     0          
C1       C      0.750000000000     0.203766666667     0.583333333333     0          
C2       C      0.750000000000     0.184600000000     0.583333333333     0          
C3       C      0.739033333333     0.175633333333     0.594300000000     0          
H1       H      0.731700000000     0.181600000000     0.601633333333     0          
O2       O      0.739366666667     0.122000000000     0.406033333333     0          
C1       C      0.750000000000     0.129566666667     0.416666666667     0          
C2       C      0.750000000000     0.148733333333     0.416666666667     0          
C3       C      0.739033333333     0.157700000000     0.405700000000     0          
H1       H      0.731700000000     0.151733333333     0.398366666667     0          
O2       O      0.927300000000     0.211333333333     0.406033333333     0          
C1       C      0.916666666667     0.203766666667     0.416666666667     0          
C2       C      0.916666666667     0.184600000000     0.416666666667     0          
C3       C      0.927633333333     0.175633333333     0.405700000000     0          
H1       H      0.934966666667     0.181600000000     0.398366666667     0          
O2       O      0.927300000000     0.122000000000     0.593966666667     0          
C1       C      0.916666666667     0.129566666667     0.583333333333     0          
C2       C      0.916666666667     0.148733333333     0.583333333333     0          
C3       C      0.927633333333     0.157700000000     0.594300000000     0          
H1       H      0.934966666667     0.151733333333     0.601633333333     0          
O2       O      0.906033333333     0.093966666667     0.455333333333     0          
C3       C      0.905700000000     0.094300000000     0.491033333333     0          
H1       H      0.898366666667     0.101633333333     0.485066666667     0          
O2       O      0.739366666667     0.072700000000     0.455333333333     0          
C3       C      0.739033333333     0.072366666667     0.491033333333     0          
H1       H      0.731700000000     0.065033333333     0.485066666667     0          
O2       O      0.760633333333     0.239366666667     0.455333333333     0          
C3       C      0.760966666667     0.239033333333     0.491033333333     0          
H1       H      0.768300000000     0.231700000000     0.485066666667     0          
O2       O      0.927300000000     0.260633333333     0.455333333333     0          
C3       C      0.927633333333     0.260966666667     0.491033333333     0          
H1       H      0.934966666667     0.268300000000     0.485066666667     0          
O2       O      0.906033333333     0.239366666667     0.544666666667     0          
C3       C      0.905700000000     0.239033333333     0.508966666667     0          
H1       H      0.898366666667     0.231700000000     0.514933333333     0          
O2       O      0.927300000000     0.072700000000     0.544666666667     0          
C3       C      0.927633333333     0.072366666667     0.508966666667     0          
H1       H      0.934966666667     0.065033333333     0.514933333333     0          
O2       O      0.760633333333     0.093966666667     0.544666666667     0          
C3       C      0.760966666667     0.094300000000     0.508966666667     0          
H1       H      0.768300000000     0.101633333333     0.514933333333     0          
O2       O      0.739366666667     0.260633333333     0.544666666667     0          
C3       C      0.739033333333     0.260966666667     0.508966666667     0          
H1       H      0.731700000000     0.268300000000     0.514933333333     0          
O2       O      0.760633333333     0.122000000000     0.427300000000     0          
C3       C      0.760966666667     0.157700000000     0.427633333333     0          
H1       H      0.768300000000     0.151733333333     0.434966666667     0          
O2       O      0.906033333333     0.211333333333     0.427300000000     0          
C3       C      0.905700000000     0.175633333333     0.427633333333     0          
H1       H      0.898366666667     0.181600000000     0.434966666667     0          
O2       O      0.906033333333     0.122000000000     0.572700000000     0          
C3       C      0.905700000000     0.157700000000     0.572366666667     0          
H1       H      0.898366666667     0.151733333333     0.565033333333     0          
O2       O      0.760633333333     0.211333333333     0.572700000000     0          
C3       C      0.760966666667     0.175633333333     0.572366666667     0          
H1       H      0.768300000000     0.181600000000     0.565033333333     0          
O2       O      0.927300000000     0.122000000000     0.406033333333     0          
C3       C      0.927633333333     0.157700000000     0.405700000000     0          
H1       H      0.934966666667     0.151733333333     0.398366666667     0          
O2       O      0.927300000000     0.211333333333     0.593966666667     0          
C3       C      0.927633333333     0.175633333333     0.594300000000     0          
H1       H      0.934966666667     0.181600000000     0.601633333333     0          
O2       O      0.739366666667     0.122000000000     0.593966666667     0          
C3       C      0.739033333333     0.157700000000     0.594300000000     0          
H1       H      0.731700000000     0.151733333333     0.601633333333     0          
O2       O      0.739366666667     0.211333333333     0.406033333333     0          
C3       C      0.739033333333     0.175633333333     0.405700000000     0          
H1       H      0.731700000000     0.181600000000     0.398366666667     0          
O2       O      0.878000000000     0.093966666667     0.572700000000     0          
C1       C      0.870433333333     0.083333333333     0.583333333333     0          
C2       C      0.851266666667     0.083333333333     0.583333333333     0          
C3       C      0.842300000000     0.094300000000     0.572366666667     0          
H1       H      0.848266666667     0.101633333333     0.565033333333     0          
O2       O      0.788666666667     0.239366666667     0.572700000000     0          
C1       C      0.796233333333     0.250000000000     0.583333333333     0          
C2       C      0.815400000000     0.250000000000     0.583333333333     0          
C3       C      0.824366666667     0.239033333333     0.572366666667     0          
H1       H      0.818400000000     0.231700000000     0.565033333333     0          
O2       O      0.878000000000     0.239366666667     0.427300000000     0          
C1       C      0.870433333333     0.250000000000     0.416666666667     0          
C2       C      0.851266666667     0.250000000000     0.416666666667     0          
C3       C      0.842300000000     0.239033333333     0.427633333333     0          
H1       H      0.848266666667     0.231700000000     0.434966666667     0          
O2       O      0.788666666667     0.093966666667     0.427300000000     0          
C1       C      0.796233333333     0.083333333333     0.416666666667     0          
C2       C      0.815400000000     0.083333333333     0.416666666667     0          
C3       C      0.824366666667     0.094300000000     0.427633333333     0          
H1       H      0.818400000000     0.101633333333     0.434966666667     0          
O2       O      0.878000000000     0.072700000000     0.406033333333     0          
C1       C      0.870433333333     0.083333333333     0.416666666667     0          
C2       C      0.851266666667     0.083333333333     0.416666666667     0          
C3       C      0.842300000000     0.072366666667     0.405700000000     0          
H1       H      0.848266666667     0.065033333333     0.398366666667     0          
O2       O      0.788666666667     0.260633333333     0.406033333333     0          
C1       C      0.796233333333     0.250000000000     0.416666666667     0          
C2       C      0.815400000000     0.250000000000     0.416666666667     0          
C3       C      0.824366666667     0.260966666667     0.405700000000     0          
H1       H      0.818400000000     0.268300000000     0.398366666667     0          
O2       O      0.878000000000     0.260633333333     0.593966666667     0          
C1       C      0.870433333333     0.250000000000     0.583333333333     0          
C2       C      0.851266666667     0.250000000000     0.583333333333     0          
C3       C      0.842300000000     0.260966666667     0.594300000000     0          
H1       H      0.848266666667     0.268300000000     0.601633333333     0          
O2       O      0.788666666667     0.072700000000     0.593966666667     0          
C1       C      0.796233333333     0.083333333333     0.583333333333     0          
C2       C      0.815400000000     0.083333333333     0.583333333333     0          
C3       C      0.824366666667     0.072366666667     0.594300000000     0          
H1       H      0.818400000000     0.065033333333     0.601633333333     0          
O2       O      0.788666666667     0.239366666667     0.427300000000     0          
C3       C      0.824366666667     0.239033333333     0.427633333333     0          
H1       H      0.818400000000     0.231700000000     0.434966666667     0          
O2       O      0.878000000000     0.093966666667     0.427300000000     0          
C3       C      0.842300000000     0.094300000000     0.427633333333     0          
H1       H      0.848266666667     0.101633333333     0.434966666667     0          
O2       O      0.788666666667     0.093966666667     0.572700000000     0          
C3       C      0.824366666667     0.094300000000     0.572366666667     0          
H1       H      0.818400000000     0.101633333333     0.565033333333     0          
O2       O      0.878000000000     0.239366666667     0.572700000000     0          
C3       C      0.842300000000     0.239033333333     0.572366666667     0          
H1       H      0.848266666667     0.231700000000     0.565033333333     0          
O2       O      0.788666666667     0.260633333333     0.593966666667     0          
C3       C      0.824366666667     0.260966666667     0.594300000000     0          
H1       H      0.818400000000     0.268300000000     0.601633333333     0          
O2       O      0.878000000000     0.072700000000     0.593966666667     0          
C3       C      0.842300000000     0.072366666667     0.594300000000     0          
H1       H      0.848266666667     0.065033333333     0.601633333333     0          
O2       O      0.788666666667     0.072700000000     0.406033333333     0          
C3       C      0.824366666667     0.072366666667     0.405700000000     0          
H1       H      0.818400000000     0.065033333333     0.398366666667     0          
O2       O      0.878000000000     0.260633333333     0.406033333333     0          
C3       C      0.842300000000     0.260966666667     0.405700000000     0          
H1       H      0.848266666667     0.268300000000     0.398366666667     0          
Zn1      Zn     0.764466666667     0.068866666667     0.735533333333     0          
O1       O      0.750000000000     0.083333333333     0.750000000000     0          
O2       O      0.760633333333     0.072700000000     0.711333333333     0          
C1       C      0.750000000000     0.083333333333     0.703766666667     0          
C2       C      0.750000000000     0.083333333333     0.684600000000     0          
C3       C      0.760966666667     0.072366666667     0.675633333333     0          
H1       H      0.768300000000     0.065033333333     0.681600000000     0          
Zn1      Zn     0.931133333333     0.097800000000     0.735533333333     0          
O1       O      0.916666666667     0.083333333333     0.750000000000     0          
O2       O      0.927300000000     0.093966666667     0.711333333333     0          
C1       C      0.916666666667     0.083333333333     0.703766666667     0          
C2       C      0.916666666667     0.083333333333     0.684600000000     0          
C3       C      0.927633333333     0.094300000000     0.675633333333     0          
H1       H      0.934966666667     0.101633333333     0.681600000000     0          
Zn1      Zn     0.902200000000     0.264466666667     0.735533333333     0          
O1       O      0.916666666667     0.250000000000     0.750000000000     0          
O2       O      0.906033333333     0.260633333333     0.711333333333     0          
C1       C      0.916666666667     0.250000000000     0.703766666667     0          
C2       C      0.916666666667     0.250000000000     0.684600000000     0          
C3       C      0.905700000000     0.260966666667     0.675633333333     0          
H1       H      0.898366666667     0.268300000000     0.681600000000     0          
Zn1      Zn     0.735533333333     0.235533333333     0.735533333333     0          
O1       O      0.750000000000     0.250000000000     0.750000000000     0          
O2       O      0.739366666667     0.239366666667     0.711333333333     0          
C1       C      0.750000000000     0.250000000000     0.703766666667     0          
C2       C      0.750000000000     0.250000000000     0.684600000000     0          
C3       C      0.739033333333     0.239033333333     0.675633333333     0          
H1       H      0.731700000000     0.231700000000     0.681600000000     0          
Zn1      Zn     0.764466666667     0.264466666667     0.931133333333     0          
O1       O      0.750000000000     0.250000000000     0.916666666667     0          
O2       O      0.760633333333     0.260633333333     0.955333333333     0          
C1       C      0.750000000000     0.250000000000     0.962900000000     0          
C2       C      0.750000000000     0.250000000000     0.982066666667     0          
C3       C      0.760966666667     0.260966666667     0.991033333333     0          
H1       H      0.768300000000     0.268300000000     0.985066666667     0          
Zn1      Zn     0.735533333333     0.097800000000     0.931133333333     0          
O1       O      0.750000000000     0.083333333333     0.916666666667     0          
O2       O      0.739366666667     0.093966666667     0.955333333333     0          
C1       C      0.750000000000     0.083333333333     0.962900000000     0          
C2       C      0.750000000000     0.083333333333     0.982066666667     0          
C3       C      0.739033333333     0.094300000000     0.991033333333     0          
H1       H      0.731700000000     0.101633333333     0.985066666667     0          
Zn1      Zn     0.902200000000     0.068866666667     0.931133333333     0          
O1       O      0.916666666667     0.083333333333     0.916666666667     0          
O2       O      0.906033333333     0.072700000000     0.955333333333     0          
C1       C      0.916666666667     0.083333333333     0.962900000000     0          
C2       C      0.916666666667     0.083333333333     0.982066666667     0          
C3       C      0.905700000000     0.072366666667     0.991033333333     0          
H1       H      0.898366666667     0.065033333333     0.985066666667     0          
Zn1      Zn     0.931133333333     0.235533333333     0.931133333333     0          
O1       O      0.916666666667     0.250000000000     0.916666666667     0          
O2       O      0.927300000000     0.239366666667     0.955333333333     0          
C1       C      0.916666666667     0.250000000000     0.962900000000     0          
C2       C      0.916666666667     0.250000000000     0.982066666667     0          
C3       C      0.927633333333     0.239033333333     0.991033333333     0          
H1       H      0.934966666667     0.231700000000     0.985066666667     0          
Zn1      Zn     0.735533333333     0.097800000000     0.735533333333     0          
O2       O      0.711333333333     0.093966666667     0.739366666667     0          
C1       C      0.703766666667     0.083333333333     0.750000000000     0          
C2       C      0.684600000000     0.083333333333     0.750000000000     0          
C3       C      0.675633333333     0.094300000000     0.739033333333     0          
H1       H      0.681600000000     0.101633333333     0.731700000000     0          
Zn1      Zn     0.902200000000     0.068866666667     0.735533333333     0          
O2       O      0.906033333333     0.044666666667     0.739366666667     0          
C1       C      0.916666666667     0.037100000000     0.750000000000     0          
C2       C      0.916666666667     0.017933333333     0.750000000000     0          
C3       C      0.905700000000     0.008966666667     0.739033333333     0          
H1       H      0.898366666667     0.014933333333     0.731700000000     0          
Zn1      Zn     0.931133333333     0.235533333333     0.735533333333     0          
O2       O      0.955333333333     0.239366666667     0.739366666667     0          
C1       C      0.962900000000     0.250000000000     0.750000000000     0          
C2       C      0.982066666667     0.250000000000     0.750000000000     0          
C3       C      0.991033333333     0.239033333333     0.739033333333     0          
H1       H      0.985066666667     0.231700000000     0.731700000000     0          
Zn1      Zn     0.764466666667     0.264466666667     0.735533333333     0          
O2       O      0.760633333333     0.288666666667     0.739366666667     0          
C1       C      0.750000000000     0.296233333333     0.750000000000     0          
C2       C      0.750000000000     0.315400000000     0.750000000000     0          
C3       C      0.760966666667     0.324366666667     0.739033333333     0          
H1       H      0.768300000000     0.318400000000     0.731700000000     0          
Zn1      Zn     0.735533333333     0.235533333333     0.931133333333     0          
O2       O      0.711333333333     0.239366666667     0.927300000000     0          
C1       C      0.703766666667     0.250000000000     0.916666666667     0          
C2       C      0.684600000000     0.250000000000     0.916666666667     0          
C3       C      0.675633333333     0.239033333333     0.927633333333     0          
H1       H      0.681600000000     0.231700000000     0.934966666667     0          
Zn1      Zn     0.764466666667     0.068866666667     0.931133333333     0          
O2       O      0.760633333333     0.044666666667     0.927300000000     0          
C1       C      0.750000000000     0.037100000000     0.916666666667     0          
C2       C      0.750000000000     0.017933333333     0.916666666667     0          
C3       C      0.760966666667     0.008966666667     0.927633333333     0          
H1       H      0.768300000000     0.014933333333     0.934966666667     0          
Zn1      Zn     0.931133333333     0.097800000000     0.931133333333     0          
O2       O      0.955333333333     0.093966666667     0.927300000000     0          
C1       C      0.962900000000     0.083333333333     0.916666666667     0          
C2       C      0.982066666667     0.083333333333     0.916666666667     0          
C3       C      0.991033333333     0.094300000000     0.927633333333     0          
H1       H      0.985066666667     0.101633333333     0.934966666667     0          
Zn1      Zn     0.902200000000     0.264466666667     0.931133333333     0          
O2       O      0.906033333333     0.288666666667     0.927300000000     0          
C1       C      0.916666666667     0.296233333333     0.916666666667     0          
C2       C      0.916666666667     0.315400000000     0.916666666667     0          
C3       C      0.905700000000     0.324366666667     0.927633333333     0          
H1       H      0.898366666667     0.318400000000     0.934966666667     0          
Zn1      Zn     0.735533333333     0.068866666667     0.764466666667     0          
O2       O      0.739366666667     0.044666666667     0.760633333333     0          
C1       C      0.750000000000     0.037100000000     0.750000000000     0          
C2       C      0.750000000000     0.017933333333     0.750000000000     0          
C3       C      0.739033333333     0.008966666667     0.760966666667     0          
H1       H      0.731700000000     0.014933333333     0.768300000000     0          
Zn1      Zn     0.735533333333     0.264466666667     0.902200000000     0          
O2       O      0.739366666667     0.288666666667     0.906033333333     0          
C1       C      0.750000000000     0.296233333333     0.916666666667     0          
C2       C      0.750000000000     0.315400000000     0.916666666667     0          
C3       C      0.739033333333     0.324366666667     0.905700000000     0          
H1       H      0.731700000000     0.318400000000     0.898366666667     0          
Zn1      Zn     0.735533333333     0.068866666667     0.902200000000     0          
O2       O      0.711333333333     0.072700000000     0.906033333333     0          
C1       C      0.703766666667     0.083333333333     0.916666666667     0          
C2       C      0.684600000000     0.083333333333     0.916666666667     0          
C3       C      0.675633333333     0.072366666667     0.905700000000     0          
H1       H      0.681600000000     0.065033333333     0.898366666667     0          
Zn1      Zn     0.931133333333     0.068866666667     0.902200000000     0          
O2       O      0.927300000000     0.044666666667     0.906033333333     0          
C1       C      0.916666666667     0.037100000000     0.916666666667     0          
C2       C      0.916666666667     0.017933333333     0.916666666667     0          
C3       C      0.927633333333     0.008966666667     0.905700000000     0          
H1       H      0.934966666667     0.014933333333     0.898366666667     0          
Zn1      Zn     0.931133333333     0.264466666667     0.902200000000     0          
O2       O      0.955333333333     0.260633333333     0.906033333333     0          
C1       C      0.962900000000     0.250000000000     0.916666666667     0          
C2       C      0.982066666667     0.250000000000     0.916666666667     0          
C3       C      0.991033333333     0.260966666667     0.905700000000     0          
H1       H      0.985066666667     0.268300000000     0.898366666667     0          
Zn1      Zn     0.931133333333     0.264466666667     0.764466666667     0          
O2       O      0.927300000000     0.288666666667     0.760633333333     0          
C1       C      0.916666666667     0.296233333333     0.750000000000     0          
C2       C      0.916666666667     0.315400000000     0.750000000000     0          
C3       C      0.927633333333     0.324366666667     0.760966666667     0          
H1       H      0.934966666667     0.318400000000     0.768300000000     0          
Zn1      Zn     0.735533333333     0.264466666667     0.764466666667     0          
O2       O      0.711333333333     0.260633333333     0.760633333333     0          
C1       C      0.703766666667     0.250000000000     0.750000000000     0          
C2       C      0.684600000000     0.250000000000     0.750000000000     0          
C3       C      0.675633333333     0.260966666667     0.760966666667     0          
H1       H      0.681600000000     0.268300000000     0.768300000000     0          
Zn1      Zn     0.931133333333     0.068866666667     0.764466666667     0          
O2       O      0.955333333333     0.072700000000     0.760633333333     0          
C1       C      0.962900000000     0.083333333333     0.750000000000     0          
C2       C      0.982066666667     0.083333333333     0.750000000000     0          
C3       C      0.991033333333     0.072366666667     0.760966666667     0          
H1       H      0.985066666667     0.065033333333     0.768300000000     0          
O2       O      0.906033333333     0.260633333333     0.955333333333     0          
C3       C      0.905700000000     0.260966666667     0.991033333333     0          
H1       H      0.898366666667     0.268300000000     0.985066666667     0          
O2       O      0.739366666667     0.239366666667     0.955333333333     0          
C3       C      0.739033333333     0.239033333333     0.991033333333     0          
H1       H      0.731700000000     0.231700000000     0.985066666667     0          
O2       O      0.760633333333     0.072700000000     0.955333333333     0          
C3       C      0.760966666667     0.072366666667     0.991033333333     0          
H1       H      0.768300000000     0.065033333333     0.985066666667     0          
O2       O      0.927300000000     0.093966666667     0.955333333333     0          
C3       C      0.927633333333     0.094300000000     0.991033333333     0          
H1       H      0.934966666667     0.101633333333     0.985066666667     0          
O2       O      0.906033333333     0.072700000000     0.711333333333     0          
C3       C      0.905700000000     0.072366666667     0.675633333333     0          
H1       H      0.898366666667     0.065033333333     0.681600000000     0          
O2       O      0.927300000000     0.239366666667     0.711333333333     0          
C3       C      0.927633333333     0.239033333333     0.675633333333     0          
H1       H      0.934966666667     0.231700000000     0.681600000000     0          
O2       O      0.760633333333     0.260633333333     0.711333333333     0          
C3       C      0.760966666667     0.260966666667     0.675633333333     0          
H1       H      0.768300000000     0.268300000000     0.681600000000     0          
O2       O      0.739366666667     0.093966666667     0.711333333333     0          
C3       C      0.739033333333     0.094300000000     0.675633333333     0          
H1       H      0.731700000000     0.101633333333     0.681600000000     0          
O2       O      0.955333333333     0.239366666667     0.927300000000     0          
C3       C      0.991033333333     0.239033333333     0.927633333333     0          
H1       H      0.985066666667     0.231700000000     0.934966666667     0          
O2       O      0.760633333333     0.288666666667     0.927300000000     0          
C3       C      0.760966666667     0.324366666667     0.927633333333     0          
H1       H      0.768300000000     0.318400000000     0.934966666667     0          
O2       O      0.711333333333     0.093966666667     0.927300000000     0          
C3       C      0.675633333333     0.094300000000     0.927633333333     0          
H1       H      0.681600000000     0.101633333333     0.934966666667     0          
O2       O      0.906033333333     0.044666666667     0.927300000000     0          
C3       C      0.905700000000     0.008966666667     0.927633333333     0          
H1       H      0.898366666667     0.014933333333     0.934966666667     0          
O2       O      0.955333333333     0.093966666667     0.739366666667     0          
C3       C      0.991033333333     0.094300000000     0.739033333333     0          
H1       H      0.985066666667     0.101633333333     0.731700000000     0          
O2       O      0.906033333333     0.288666666667     0.739366666667     0          
C3       C      0.905700000000     0.324366666667     0.739033333333     0          
H1       H      0.898366666667     0.318400000000     0.731700000000     0          
O2       O      0.711333333333     0.239366666667     0.739366666667     0          
C3       C      0.675633333333     0.239033333333     0.739033333333     0          
H1       H      0.681600000000     0.231700000000     0.731700000000     0          
O2       O      0.760633333333     0.044666666667     0.739366666667     0          
C3       C      0.760966666667     0.008966666667     0.739033333333     0          
H1       H      0.768300000000     0.014933333333     0.731700000000     0          
O2       O      0.927300000000     0.288666666667     0.906033333333     0          
C3       C      0.927633333333     0.324366666667     0.905700000000     0          
H1       H      0.934966666667     0.318400000000     0.898366666667     0          
O2       O      0.927300000000     0.044666666667     0.760633333333     0          
C3       C      0.927633333333     0.008966666667     0.760966666667     0          
H1       H      0.934966666667     0.014933333333     0.768300000000     0          
O2       O      0.955333333333     0.260633333333     0.760633333333     0          
C3       C      0.991033333333     0.260966666667     0.760966666667     0          
H1       H      0.985066666667     0.268300000000     0.768300000000     0          
O2       O      0.739366666667     0.288666666667     0.760633333333     0          
C3       C      0.739033333333     0.324366666667     0.760966666667     0          
H1       H      0.731700000000     0.318400000000     0.768300000000     0          
O2       O      0.711333333333     0.072700000000     0.760633333333     0          
C3       C      0.675633333333     0.072366666667     0.760966666667     0          
H1       H      0.681600000000     0.065033333333     0.768300000000     0          
O2       O      0.739366666667     0.044666666667     0.906033333333     0          
C3       C      0.739033333333     0.008966666667     0.905700000000     0          
H1       H      0.731700000000     0.014933333333     0.898366666667     0          
O2       O      0.955333333333     0.072700000000     0.906033333333     0          
C3       C      0.991033333333     0.072366666667     0.905700000000     0          
H1       H      0.985066666667     0.065033333333     0.898366666667     0          
O2       O      0.711333333333     0.260633333333     0.906033333333     0          
C3       C      0.675633333333     0.260966666667     0.905700000000     0          
H1       H      0.681600000000     0.268300000000     0.898366666667     0          
Zn1      Zn     0.764466666667     0.235533333333     0.902200000000     0          
O2       O      0.760633333333     0.239366666667     0.878000000000     0          
C1       C      0.750000000000     0.250000000000     0.870433333333     0          
C2       C      0.750000000000     0.250000000000     0.851266666667     0          
C3       C      0.760966666667     0.239033333333     0.842300000000     0          
H1       H      0.768300000000     0.231700000000     0.848266666667     0          
O2       O      0.927300000000     0.260633333333     0.878000000000     0          
C1       C      0.916666666667     0.250000000000     0.870433333333     0          
C2       C      0.916666666667     0.250000000000     0.851266666667     0          
C3       C      0.927633333333     0.260966666667     0.842300000000     0          
H1       H      0.934966666667     0.268300000000     0.848266666667     0          
Zn1      Zn     0.902200000000     0.097800000000     0.902200000000     0          
O2       O      0.906033333333     0.093966666667     0.878000000000     0          
C1       C      0.916666666667     0.083333333333     0.870433333333     0          
C2       C      0.916666666667     0.083333333333     0.851266666667     0          
C3       C      0.905700000000     0.094300000000     0.842300000000     0          
H1       H      0.898366666667     0.101633333333     0.848266666667     0          
O2       O      0.739366666667     0.072700000000     0.878000000000     0          
C1       C      0.750000000000     0.083333333333     0.870433333333     0          
C2       C      0.750000000000     0.083333333333     0.851266666667     0          
C3       C      0.739033333333     0.072366666667     0.842300000000     0          
H1       H      0.731700000000     0.065033333333     0.848266666667     0          
Zn1      Zn     0.764466666667     0.097800000000     0.764466666667     0          
O2       O      0.760633333333     0.093966666667     0.788666666667     0          
C1       C      0.750000000000     0.083333333333     0.796233333333     0          
C2       C      0.750000000000     0.083333333333     0.815400000000     0          
C3       C      0.760966666667     0.094300000000     0.824366666667     0          
H1       H      0.768300000000     0.101633333333     0.818400000000     0          
O2       O      0.739366666667     0.260633333333     0.788666666667     0          
C1       C      0.750000000000     0.250000000000     0.796233333333     0          
C2       C      0.750000000000     0.250000000000     0.815400000000     0          
C3       C      0.739033333333     0.260966666667     0.824366666667     0          
H1       H      0.731700000000     0.268300000000     0.818400000000     0          
Zn1      Zn     0.902200000000     0.235533333333     0.764466666667     0          
O2       O      0.906033333333     0.239366666667     0.788666666667     0          
C1       C      0.916666666667     0.250000000000     0.796233333333     0          
C2       C      0.916666666667     0.250000000000     0.815400000000     0          
C3       C      0.905700000000     0.239033333333     0.824366666667     0          
H1       H      0.898366666667     0.231700000000     0.818400000000     0          
O2       O      0.927300000000     0.072700000000     0.788666666667     0          
C1       C      0.916666666667     0.083333333333     0.796233333333     0          
C2       C      0.916666666667     0.083333333333     0.815400000000     0          
C3       C      0.927633333333     0.072366666667     0.824366666667     0          
H1       H      0.934966666667     0.065033333333     0.818400000000     0          
Zn1      Zn     0.902200000000     0.235533333333     0.902200000000     0          
O2       O      0.906033333333     0.211333333333     0.906033333333     0          
C1       C      0.916666666667     0.203766666667     0.916666666667     0          
C2       C      0.916666666667     0.184600000000     0.916666666667     0          
C3       C      0.905700000000     0.175633333333     0.905700000000     0          
H1       H      0.898366666667     0.181600000000     0.898366666667     0          
Zn1      Zn     0.764466666667     0.097800000000     0.902200000000     0          
O2       O      0.760633333333     0.122000000000     0.906033333333     0          
C1       C      0.750000000000     0.129566666667     0.916666666667     0          
C2       C      0.750000000000     0.148733333333     0.916666666667     0          
C3       C      0.760966666667     0.157700000000     0.905700000000     0          
H1       H      0.768300000000     0.151733333333     0.898366666667     0          
Zn1      Zn     0.764466666667     0.235533333333     0.764466666667     0          
O2       O      0.760633333333     0.211333333333     0.760633333333     0          
C1       C      0.750000000000     0.203766666667     0.750000000000     0          
C2       C      0.750000000000     0.184600000000     0.750000000000     0          
C3       C      0.760966666667     0.175633333333     0.760966666667     0          
H1       H      0.768300000000     0.181600000000     0.768300000000     0          
Zn1      Zn     0.902200000000     0.097800000000     0.764466666667     0          
O2       O      0.906033333333     0.122000000000     0.760633333333     0          
C1       C      0.916666666667     0.129566666667     0.750000000000     0          
C2       C      0.916666666667     0.148733333333     0.750000000000     0          
C3       C      0.905700000000     0.157700000000     0.760966666667     0          
H1       H      0.898366666667     0.151733333333     0.768300000000     0          
O2       O      0.739366666667     0.211333333333     0.927300000000     0          
C1       C      0.750000000000     0.203766666667     0.916666666667     0          
C2       C      0.750000000000     0.184600000000     0.916666666667     0          
C3       C      0.739033333333     0.175633333333     0.927633333333     0          
H1       H      0.731700000000     0.181600000000     0.934966666667     0          
O2       O      0.739366666667     0.122000000000     0.739366666667     0          
C1       C      0.750000000000     0.129566666667     0.750000000000     0          
C2       C      0.750000000000     0.148733333333     0.750000000000     0          
C3       C      0.739033333333     0.157700000000     0.739033333333     0          
H1       H      0.731700000000     0.151733333333     0.731700000000     0          
O2       O      0.927300000000     0.211333333333     0.739366666667     0          
C1       C      0.916666666667     0.203766666667     0.750000000000     0          
C2       C      0.916666666667     0.184600000000     0.750000000000     0          
C3       C      0.927633333333     0.175633333333     0.739033333333     0          
H1       H      0.934966666667     0.181600000000     0.731700000000     0          
O2       O      0.927300000000     0.122000000000     0.927300000000     0          
C1       C      0.916666666667     0.129566666667     0.916666666667     0          
C2       C      0.916666666667     0.148733333333     0.916666666667     0          
C3       C      0.927633333333     0.157700000000     0.927633333333     0          
H1       H      0.934966666667     0.151733333333     0.934966666667     0          
O2       O      0.906033333333     0.093966666667     0.788666666667     0          
C3       C      0.905700000000     0.094300000000     0.824366666667     0          
H1       H      0.898366666667     0.101633333333     0.818400000000     0          
O2       O      0.739366666667     0.072700000000     0.788666666667     0          
C3       C      0.739033333333     0.072366666667     0.824366666667     0          
H1       H      0.731700000000     0.065033333333     0.818400000000     0          
O2       O      0.760633333333     0.239366666667     0.788666666667     0          
C3       C      0.760966666667     0.239033333333     0.824366666667     0          
H1       H      0.768300000000     0.231700000000     0.818400000000     0          
O2       O      0.927300000000     0.260633333333     0.788666666667     0          
C3       C      0.927633333333     0.260966666667     0.824366666667     0          
H1       H      0.934966666667     0.268300000000     0.818400000000     0          
O2       O      0.906033333333     0.239366666667     0.878000000000     0          
C3       C      0.905700000000     0.239033333333     0.842300000000     0          
H1       H      0.898366666667     0.231700000000     0.848266666667     0          
O2       O      0.927300000000     0.072700000000     0.878000000000     0          
C3       C      0.927633333333     0.072366666667     0.842300000000     0          
H1       H      0.934966666667     0.065033333333     0.848266666667     0          
O2       O      0.760633333333     0.093966666667     0.878000000000     0          
C3       C      0.760966666667     0.094300000000     0.842300000000     0          
H1       H      0.768300000000     0.101633333333     0.848266666667     0          
O2       O      0.739366666667     0.260633333333     0.878000000000     0          
C3       C      0.739033333333     0.260966666667     0.842300000000     0          
H1       H      0.731700000000     0.268300000000     0.848266666667     0          
O2       O      0.760633333333     0.122000000000     0.760633333333     0          
C3       C      0.760966666667     0.157700000000     0.760966666667     0          
H1       H      0.768300000000     0.151733333333     0.768300000000     0          
O2       O      0.906033333333     0.211333333333     0.760633333333     0          
C3       C      0.905700000000     0.175633333333     0.760966666667     0          
H1       H      0.898366666667     0.181600000000     0.768300000000     0          
O2       O      0.906033333333     0.122000000000     0.906033333333     0          
C3       C      0.905700000000     0.157700000000     0.905700000000     0          
H1       H      0.898366666667     0.151733333333     0.898366666667     0          
O2       O      0.760633333333     0.211333333333     0.906033333333     0          
C3       C      0.760966666667     0.175633333333     0.905700000000     0          
H1       H      0.768300000000     0.181600000000     0.898366666667     0          
O2       O      0.927300000000     0.122000000000     0.739366666667     0          
C3       C      0.927633333333     0.157700000000     0.739033333333     0          
H1       H      0.934966666667     0.151733333333     0.731700000000     0          
O2       O      0.927300000000     0.211333333333     0.927300000000     0          
C3       C      0.927633333333     0.175633333333     0.927633333333     0          
H1       H      0.934966666667     0.181600000000     0.934966666667     0          
O2       O      0.739366666667     0.122000000000     0.927300000000     0          
C3       C      0.739033333333     0.157700000000     0.927633333333     0          
H1       H      0.731700000000     0.151733333333     0.934966666667     0          
O2       O      0.739366666667     0.211333333333     0.739366666667     0          
C3       C      0.739033333333     0.175633333333     0.739033333333     0          
H1       H      0.731700000000     0.181600000000     0.731700000000     0          
O2       O      0.878000000000     0.093966666667     0.906033333333     0          
C1       C      0.870433333333     0.083333333333     0.916666666667     0          
C2       C      0.851266666667     0.083333333333     0.916666666667     0          
C3       C      0.842300000000     0.094300000000     0.905700000000     0          
H1       H      0.848266666667     0.101633333333     0.898366666667     0          
O2       O      0.788666666667     0.239366666667     0.906033333333     0          
C1       C      0.796233333333     0.250000000000     0.916666666667     0          
C2       C      0.815400000000     0.250000000000     0.916666666667     0          
C3       C      0.824366666667     0.239033333333     0.905700000000     0          
H1       H      0.818400000000     0.231700000000     0.898366666667     0          
O2       O      0.878000000000     0.239366666667     0.760633333333     0          
C1       C      0.870433333333     0.250000000000     0.750000000000     0          
C2       C      0.851266666667     0.250000000000     0.750000000000     0          
C3       C      0.842300000000     0.239033333333     0.760966666667     0          
H1       H      0.848266666667     0.231700000000     0.768300000000     0          
O2       O      0.788666666667     0.093966666667     0.760633333333     0          
C1       C      0.796233333333     0.083333333333     0.750000000000     0          
C2       C      0.815400000000     0.083333333333     0.750000000000     0          
C3       C      0.824366666667     0.094300000000     0.760966666667     0          
H1       H      0.818400000000     0.101633333333     0.768300000000     0          
O2       O      0.878000000000     0.072700000000     0.739366666667     0          
C1       C      0.870433333333     0.083333333333     0.750000000000     0          
C2       C      0.851266666667     0.083333333333     0.750000000000     0          
C3       C      0.842300000000     0.072366666667     0.739033333333     0          
H1       H      0.848266666667     0.065033333333     0.731700000000     0          
O2       O      0.788666666667     0.260633333333     0.739366666667     0          
C1       C      0.796233333333     0.250000000000     0.750000000000     0          
C2       C      0.815400000000     0.250000000000     0.750000000000     0          
C3       C      0.824366666667     0.260966666667     0.739033333333     0          
H1       H      0.818400000000     0.268300000000     0.731700000000     0          
O2       O      0.878000000000     0.260633333333     0.927300000000     0          
C1       C      0.870433333333     0.250000000000     0.916666666667     0          
C2       C      0.851266666667     0.250000000000     0.916666666667     0          
C3       C      0.842300000000     0.260966666667     0.927633333333     0          
H1       H      0.848266666667     0.268300000000     0.934966666667     0          
O2       O      0.788666666667     0.072700000000     0.927300000000     0          
C1       C      0.796233333333     0.083333333333     0.916666666667     0          
C2       C      0.815400000000     0.083333333333     0.916666666667     0          
C3       C      0.824366666667     0.072366666667     0.927633333333     0          
H1       H      0.818400000000     0.065033333333     0.934966666667     0          
O2       O      0.788666666667     0.239366666667     0.760633333333     0          
C3       C      0.824366666667     0.239033333333     0.760966666667     0          
H1       H      0.818400000000     0.231700000000     0.768300000000     0          
O2       O      0.878000000000     0.093966666667     0.760633333333     0          
C3       C      0.842300000000     0.094300000000     0.760966666667     0          
H1       H      0.848266666667     0.101633333333     0.768300000000     0          
O2       O      0.788666666667     0.093966666667     0.906033333333     0          
C3       C      0.824366666667     0.094300000000     0.905700000000     0          
H1       H      0.818400000000     0.101633333333     0.898366666667     0          
O2       O      0.878000000000     0.239366666667     0.906033333333     0          
C3       C      0.842300000000     0.239033333333     0.905700000000     0          
H1       H      0.848266666667     0.231700000000     0.898366666667     0          
O2       O      0.788666666667     0.260633333333     0.927300000000     0          
C3       C      0.824366666667     0.260966666667     0.927633333333     0          
H1       H      0.818400000000     0.268300000000     0.934966666667     0          
O2       O      0.878000000000     0.072700000000     0.927300000000     0          
C3       C      0.842300000000     0.072366666667     0.927633333333     0          
H1       H      0.848266666667     0.065033333333     0.934966666667     0          
O2       O      0.788666666667     0.072700000000     0.739366666667     0          
C3       C      0.824366666667     0.072366666667     0.739033333333     0          
H1       H      0.818400000000     0.065033333333     0.731700000000     0          
O2       O      0.878000000000     0.260633333333     0.739366666667     0          
C3       C      0.842300000000     0.260966666667     0.739033333333     0          
H1       H      0.848266666667     0.268300000000     0.731700000000     0          
Zn1      Zn     0.764466666667     0.402200000000     0.068866666667     0          
O1       O      0.750000000000     0.416666666667     0.083333333333     0          
O2       O      0.760633333333     0.406033333333     0.044666666667     0          
C1       C      0.750000000000     0.416666666667     0.037100000000     0          
C2       C      0.750000000000     0.416666666667     0.017933333333     0          
C3       C      0.760966666667     0.405700000000     0.008966666667     0          
H1       H      0.768300000000     0.398366666667     0.014933333333     0          
Zn1      Zn     0.931133333333     0.431133333333     0.068866666667     0          
O1       O      0.916666666667     0.416666666667     0.083333333333     0          
O2       O      0.927300000000     0.427300000000     0.044666666667     0          
C1       C      0.916666666667     0.416666666667     0.037100000000     0          
C2       C      0.916666666667     0.416666666667     0.017933333333     0          
C3       C      0.927633333333     0.427633333333     0.008966666667     0          
H1       H      0.934966666667     0.434966666667     0.014933333333     0          
Zn1      Zn     0.902200000000     0.597800000000     0.068866666667     0          
O1       O      0.916666666667     0.583333333333     0.083333333333     0          
O2       O      0.906033333333     0.593966666667     0.044666666667     0          
C1       C      0.916666666667     0.583333333333     0.037100000000     0          
C2       C      0.916666666667     0.583333333333     0.017933333333     0          
C3       C      0.905700000000     0.594300000000     0.008966666667     0          
H1       H      0.898366666667     0.601633333333     0.014933333333     0          
Zn1      Zn     0.735533333333     0.568866666667     0.068866666667     0          
O1       O      0.750000000000     0.583333333333     0.083333333333     0          
O2       O      0.739366666667     0.572700000000     0.044666666667     0          
C1       C      0.750000000000     0.583333333333     0.037100000000     0          
C2       C      0.750000000000     0.583333333333     0.017933333333     0          
C3       C      0.739033333333     0.572366666667     0.008966666667     0          
H1       H      0.731700000000     0.565033333333     0.014933333333     0          
Zn1      Zn     0.764466666667     0.597800000000     0.264466666667     0          
O1       O      0.750000000000     0.583333333333     0.250000000000     0          
O2       O      0.760633333333     0.593966666667     0.288666666667     0          
C1       C      0.750000000000     0.583333333333     0.296233333333     0          
C2       C      0.750000000000     0.583333333333     0.315400000000     0          
C3       C      0.760966666667     0.594300000000     0.324366666667     0          
H1       H      0.768300000000     0.601633333333     0.318400000000     0          
Zn1      Zn     0.735533333333     0.431133333333     0.264466666667     0          
O1       O      0.750000000000     0.416666666667     0.250000000000     0          
O2       O      0.739366666667     0.427300000000     0.288666666667     0          
C1       C      0.750000000000     0.416666666667     0.296233333333     0          
C2       C      0.750000000000     0.416666666667     0.315400000000     0          
C3       C      0.739033333333     0.427633333333     0.324366666667     0          
H1       H      0.731700000000     0.434966666667     0.318400000000     0          
Zn1      Zn     0.902200000000     0.402200000000     0.264466666667     0          
O1       O      0.916666666667     0.416666666667     0.250000000000     0          
O2       O      0.906033333333     0.406033333333     0.288666666667     0          
C1       C      0.916666666667     0.416666666667     0.296233333333     0          
C2       C      0.916666666667     0.416666666667     0.315400000000     0          
C3       C      0.905700000000     0.405700000000     0.324366666667     0          
H1       H      0.898366666667     0.398366666667     0.318400000000     0          
Zn1      Zn     0.931133333333     0.568866666667     0.264466666667     0          
O1       O      0.916666666667     0.583333333333     0.250000000000     0          
O2       O      0.927300000000     0.572700000000     0.288666666667     0          
C1       C      0.916666666667     0.583333333333     0.296233333333     0          
C2       C      0.916666666667     0.583333333333     0.315400000000     0          
C3       C      0.927633333333     0.572366666667     0.324366666667     0          
H1       H      0.934966666667     0.565033333333     0.318400000000     0          
Zn1      Zn     0.735533333333     0.431133333333     0.068866666667     0          
O2       O      0.711333333333     0.427300000000     0.072700000000     0          
C1       C      0.703766666667     0.416666666667     0.083333333333     0          
C2       C      0.684600000000     0.416666666667     0.083333333333     0          
C3       C      0.675633333333     0.427633333333     0.072366666667     0          
H1       H      0.681600000000     0.434966666667     0.065033333333     0          
Zn1      Zn     0.902200000000     0.402200000000     0.068866666667     0          
O2       O      0.906033333333     0.378000000000     0.072700000000     0          
C1       C      0.916666666667     0.370433333333     0.083333333333     0          
C2       C      0.916666666667     0.351266666667     0.083333333333     0          
C3       C      0.905700000000     0.342300000000     0.072366666667     0          
H1       H      0.898366666667     0.348266666667     0.065033333333     0          
Zn1      Zn     0.931133333333     0.568866666667     0.068866666667     0          
O2       O      0.955333333333     0.572700000000     0.072700000000     0          
C1       C      0.962900000000     0.583333333333     0.083333333333     0          
C2       C      0.982066666667     0.583333333333     0.083333333333     0          
C3       C      0.991033333333     0.572366666667     0.072366666667     0          
H1       H      0.985066666667     0.565033333333     0.065033333333     0          
Zn1      Zn     0.764466666667     0.597800000000     0.068866666667     0          
O2       O      0.760633333333     0.622000000000     0.072700000000     0          
C1       C      0.750000000000     0.629566666667     0.083333333333     0          
C2       C      0.750000000000     0.648733333333     0.083333333333     0          
C3       C      0.760966666667     0.657700000000     0.072366666667     0          
H1       H      0.768300000000     0.651733333333     0.065033333333     0          
Zn1      Zn     0.735533333333     0.568866666667     0.264466666667     0          
O2       O      0.711333333333     0.572700000000     0.260633333333     0          
C1       C      0.703766666667     0.583333333333     0.250000000000     0          
C2       C      0.684600000000     0.583333333333     0.250000000000     0          
C3       C      0.675633333333     0.572366666667     0.260966666667     0          
H1       H      0.681600000000     0.565033333333     0.268300000000     0          
Zn1      Zn     0.764466666667     0.402200000000     0.264466666667     0          
O2       O      0.760633333333     0.378000000000     0.260633333333     0          
C1       C      0.750000000000     0.370433333333     0.250000000000     0          
C2       C      0.750000000000     0.351266666667     0.250000000000     0          
C3       C      0.760966666667     0.342300000000     0.260966666667     0          
H1       H      0.768300000000     0.348266666667     0.268300000000     0          
Zn1      Zn     0.931133333333     0.431133333333     0.264466666667     0          
O2       O      0.955333333333     0.427300000000     0.260633333333     0          
C1       C      0.962900000000     0.416666666667     0.250000000000     0          
C2       C      0.982066666667     0.416666666667     0.250000000000     0          
C3       C      0.991033333333     0.427633333333     0.260966666667     0          
H1       H      0.985066666667     0.434966666667     0.268300000000     0          
Zn1      Zn     0.902200000000     0.597800000000     0.264466666667     0          
O2       O      0.906033333333     0.622000000000     0.260633333333     0          
C1       C      0.916666666667     0.629566666667     0.250000000000     0          
C2       C      0.916666666667     0.648733333333     0.250000000000     0          
C3       C      0.905700000000     0.657700000000     0.260966666667     0          
H1       H      0.898366666667     0.651733333333     0.268300000000     0          
Zn1      Zn     0.735533333333     0.402200000000     0.097800000000     0          
O2       O      0.739366666667     0.378000000000     0.093966666667     0          
C1       C      0.750000000000     0.370433333333     0.083333333333     0          
C2       C      0.750000000000     0.351266666667     0.083333333333     0          
C3       C      0.739033333333     0.342300000000     0.094300000000     0          
H1       H      0.731700000000     0.348266666667     0.101633333333     0          
Zn1      Zn     0.735533333333     0.597800000000     0.235533333333     0          
O2       O      0.739366666667     0.622000000000     0.239366666667     0          
C1       C      0.750000000000     0.629566666667     0.250000000000     0          
C2       C      0.750000000000     0.648733333333     0.250000000000     0          
C3       C      0.739033333333     0.657700000000     0.239033333333     0          
H1       H      0.731700000000     0.651733333333     0.231700000000     0          
Zn1      Zn     0.735533333333     0.402200000000     0.235533333333     0          
O2       O      0.711333333333     0.406033333333     0.239366666667     0          
C1       C      0.703766666667     0.416666666667     0.250000000000     0          
C2       C      0.684600000000     0.416666666667     0.250000000000     0          
C3       C      0.675633333333     0.405700000000     0.239033333333     0          
H1       H      0.681600000000     0.398366666667     0.231700000000     0          
Zn1      Zn     0.931133333333     0.402200000000     0.235533333333     0          
O2       O      0.927300000000     0.378000000000     0.239366666667     0          
C1       C      0.916666666667     0.370433333333     0.250000000000     0          
C2       C      0.916666666667     0.351266666667     0.250000000000     0          
C3       C      0.927633333333     0.342300000000     0.239033333333     0          
H1       H      0.934966666667     0.348266666667     0.231700000000     0          
Zn1      Zn     0.931133333333     0.597800000000     0.235533333333     0          
O2       O      0.955333333333     0.593966666667     0.239366666667     0          
C1       C      0.962900000000     0.583333333333     0.250000000000     0          
C2       C      0.982066666667     0.583333333333     0.250000000000     0          
C3       C      0.991033333333     0.594300000000     0.239033333333     0          
H1       H      0.985066666667     0.601633333333     0.231700000000     0          
Zn1      Zn     0.931133333333     0.597800000000     0.097800000000     0          
O2       O      0.927300000000     0.622000000000     0.093966666667     0          
C1       C      0.916666666667     0.629566666667     0.083333333333     0          
C2       C      0.916666666667     0.648733333333     0.083333333333     0          
C3       C      0.927633333333     0.657700000000     0.094300000000     0          
H1       H      0.934966666667     0.651733333333     0.101633333333     0          
Zn1      Zn     0.735533333333     0.597800000000     0.097800000000     0          
O2       O      0.711333333333     0.593966666667     0.093966666667     0          
C1       C      0.703766666667     0.583333333333     0.083333333333     0          
C2       C      0.684600000000     0.583333333333     0.083333333333     0          
C3       C      0.675633333333     0.594300000000     0.094300000000     0          
H1       H      0.681600000000     0.601633333333     0.101633333333     0          
Zn1      Zn     0.931133333333     0.402200000000     0.097800000000     0          
O2       O      0.955333333333     0.406033333333     0.093966666667     0          
C1       C      0.962900000000     0.416666666667     0.083333333333     0          
C2       C      0.982066666667     0.416666666667     0.083333333333     0          
C3       C      0.991033333333     0.405700000000     0.094300000000     0          
H1       H      0.985066666667     0.398366666667     0.101633333333     0          
O2       O      0.906033333333     0.593966666667     0.288666666667     0          
C3       C      0.905700000000     0.594300000000     0.324366666667     0          
H1       H      0.898366666667     0.601633333333     0.318400000000     0          
O2       O      0.739366666667     0.572700000000     0.288666666667     0          
C3       C      0.739033333333     0.572366666667     0.324366666667     0          
H1       H      0.731700000000     0.565033333333     0.318400000000     0          
O2       O      0.760633333333     0.406033333333     0.288666666667     0          
C3       C      0.760966666667     0.405700000000     0.324366666667     0          
H1       H      0.768300000000     0.398366666667     0.318400000000     0          
O2       O      0.927300000000     0.427300000000     0.288666666667     0          
C3       C      0.927633333333     0.427633333333     0.324366666667     0          
H1       H      0.934966666667     0.434966666667     0.318400000000     0          
O2       O      0.906033333333     0.406033333333     0.044666666667     0          
C3       C      0.905700000000     0.405700000000     0.008966666667     0          
H1       H      0.898366666667     0.398366666667     0.014933333333     0          
O2       O      0.927300000000     0.572700000000     0.044666666667     0          
C3       C      0.927633333333     0.572366666667     0.008966666667     0          
H1       H      0.934966666667     0.565033333333     0.014933333333     0          
O2       O      0.760633333333     0.593966666667     0.044666666667     0          
C3       C      0.760966666667     0.594300000000     0.008966666667     0          
H1       H      0.768300000000     0.601633333333     0.014933333333     0          
O2       O      0.739366666667     0.427300000000     0.044666666667     0          
C3       C      0.739033333333     0.427633333333     0.008966666667     0          
H1       H      0.731700000000     0.434966666667     0.014933333333     0          
O2       O      0.955333333333     0.572700000000     0.260633333333     0          
C3       C      0.991033333333     0.572366666667     0.260966666667     0          
H1       H      0.985066666667     0.565033333333     0.268300000000     0          
O2       O      0.760633333333     0.622000000000     0.260633333333     0          
C3       C      0.760966666667     0.657700000000     0.260966666667     0          
H1       H      0.768300000000     0.651733333333     0.268300000000     0          
O2       O      0.711333333333     0.427300000000     0.260633333333     0          
C3       C      0.675633333333     0.427633333333     0.260966666667     0          
H1       H      0.681600000000     0.434966666667     0.268300000000     0          
O2       O      0.906033333333     0.378000000000     0.260633333333     0          
C3       C      0.905700000000     0.342300000000     0.260966666667     0          
H1       H      0.898366666667     0.348266666667     0.268300000000     0          
O2       O      0.955333333333     0.427300000000     0.072700000000     0          
C3       C      0.991033333333     0.427633333333     0.072366666667     0          
H1       H      0.985066666667     0.434966666667     0.065033333333     0          
O2       O      0.906033333333     0.622000000000     0.072700000000     0          
C3       C      0.905700000000     0.657700000000     0.072366666667     0          
H1       H      0.898366666667     0.651733333333     0.065033333333     0          
O2       O      0.711333333333     0.572700000000     0.072700000000     0          
C3       C      0.675633333333     0.572366666667     0.072366666667     0          
H1       H      0.681600000000     0.565033333333     0.065033333333     0          
O2       O      0.760633333333     0.378000000000     0.072700000000     0          
C3       C      0.760966666667     0.342300000000     0.072366666667     0          
H1       H      0.768300000000     0.348266666667     0.065033333333     0          
O2       O      0.927300000000     0.622000000000     0.239366666667     0          
C3       C      0.927633333333     0.657700000000     0.239033333333     0          
H1       H      0.934966666667     0.651733333333     0.231700000000     0          
O2       O      0.927300000000     0.378000000000     0.093966666667     0          
C3       C      0.927633333333     0.342300000000     0.094300000000     0          
H1       H      0.934966666667     0.348266666667     0.101633333333     0          
O2       O      0.955333333333     0.593966666667     0.093966666667     0          
C3       C      0.991033333333     0.594300000000     0.094300000000     0          
H1       H      0.985066666667     0.601633333333     0.101633333333     0          
O2       O      0.739366666667     0.622000000000     0.093966666667     0          
C3       C      0.739033333333     0.657700000000     0.094300000000     0          
H1       H      0.731700000000     0.651733333333     0.101633333333     0          
O2       O      0.711333333333     0.406033333333     0.093966666667     0          
C3       C      0.675633333333     0.405700000000     0.094300000000     0          
H1       H      0.681600000000     0.398366666667     0.101633333333     0          
O2       O      0.739366666667     0.378000000000     0.239366666667     0          
C3       C      0.739033333333     0.342300000000     0.239033333333     0          
H1       H      0.731700000000     0.348266666667     0.231700000000     0          
O2       O      0.955333333333     0.406033333333     0.239366666667     0          
C3       C      0.991033333333     0.405700000000     0.239033333333     0          
H1       H      0.985066666667     0.398366666667     0.231700000000     0          
O2       O      0.711333333333     0.593966666667     0.239366666667     0          
C3       C      0.675633333333     0.594300000000     0.239033333333     0          
H1       H      0.681600000000     0.601633333333     0.231700000000     0          
Zn1      Zn     0.764466666667     0.568866666667     0.235533333333     0          
O2       O      0.760633333333     0.572700000000     0.211333333333     0          
C1       C      0.750000000000     0.583333333333     0.203766666667     0          
C2       C      0.750000000000     0.583333333333     0.184600000000     0          
C3       C      0.760966666667     0.572366666667     0.175633333333     0          
H1       H      0.768300000000     0.565033333333     0.181600000000     0          
O2       O      0.927300000000     0.593966666667     0.211333333333     0          
C1       C      0.916666666667     0.583333333333     0.203766666667     0          
C2       C      0.916666666667     0.583333333333     0.184600000000     0          
C3       C      0.927633333333     0.594300000000     0.175633333333     0          
H1       H      0.934966666667     0.601633333333     0.181600000000     0          
Zn1      Zn     0.902200000000     0.431133333333     0.235533333333     0          
O2       O      0.906033333333     0.427300000000     0.211333333333     0          
C1       C      0.916666666667     0.416666666667     0.203766666667     0          
C2       C      0.916666666667     0.416666666667     0.184600000000     0          
C3       C      0.905700000000     0.427633333333     0.175633333333     0          
H1       H      0.898366666667     0.434966666667     0.181600000000     0          
O2       O      0.739366666667     0.406033333333     0.211333333333     0          
C1       C      0.750000000000     0.416666666667     0.203766666667     0          
C2       C      0.750000000000     0.416666666667     0.184600000000     0          
C3       C      0.739033333333     0.405700000000     0.175633333333     0          
H1       H      0.731700000000     0.398366666667     0.181600000000     0          
Zn1      Zn     0.764466666667     0.431133333333     0.097800000000     0          
O2       O      0.760633333333     0.427300000000     0.122000000000     0          
C1       C      0.750000000000     0.416666666667     0.129566666667     0          
C2       C      0.750000000000     0.416666666667     0.148733333333     0          
C3       C      0.760966666667     0.427633333333     0.157700000000     0          
H1       H      0.768300000000     0.434966666667     0.151733333333     0          
O2       O      0.739366666667     0.593966666667     0.122000000000     0          
C1       C      0.750000000000     0.583333333333     0.129566666667     0          
C2       C      0.750000000000     0.583333333333     0.148733333333     0          
C3       C      0.739033333333     0.594300000000     0.157700000000     0          
H1       H      0.731700000000     0.601633333333     0.151733333333     0          
Zn1      Zn     0.902200000000     0.568866666667     0.097800000000     0          
O2       O      0.906033333333     0.572700000000     0.122000000000     0          
C1       C      0.916666666667     0.583333333333     0.129566666667     0          
C2       C      0.916666666667     0.583333333333     0.148733333333     0          
C3       C      0.905700000000     0.572366666667     0.157700000000     0          
H1       H      0.898366666667     0.565033333333     0.151733333333     0          
O2       O      0.927300000000     0.406033333333     0.122000000000     0          
C1       C      0.916666666667     0.416666666667     0.129566666667     0          
C2       C      0.916666666667     0.416666666667     0.148733333333     0          
C3       C      0.927633333333     0.405700000000     0.157700000000     0          
H1       H      0.934966666667     0.398366666667     0.151733333333     0          
Zn1      Zn     0.902200000000     0.568866666667     0.235533333333     0          
O2       O      0.906033333333     0.544666666667     0.239366666667     0          
C1       C      0.916666666667     0.537100000000     0.250000000000     0          
C2       C      0.916666666667     0.517933333333     0.250000000000     0          
C3       C      0.905700000000     0.508966666667     0.239033333333     0          
H1       H      0.898366666667     0.514933333333     0.231700000000     0          
Zn1      Zn     0.764466666667     0.431133333333     0.235533333333     0          
O2       O      0.760633333333     0.455333333333     0.239366666667     0          
C1       C      0.750000000000     0.462900000000     0.250000000000     0          
C2       C      0.750000000000     0.482066666667     0.250000000000     0          
C3       C      0.760966666667     0.491033333333     0.239033333333     0          
H1       H      0.768300000000     0.485066666667     0.231700000000     0          
Zn1      Zn     0.764466666667     0.568866666667     0.097800000000     0          
O2       O      0.760633333333     0.544666666667     0.093966666667     0          
C1       C      0.750000000000     0.537100000000     0.083333333333     0          
C2       C      0.750000000000     0.517933333333     0.083333333333     0          
C3       C      0.760966666667     0.508966666667     0.094300000000     0          
H1       H      0.768300000000     0.514933333333     0.101633333333     0          
Zn1      Zn     0.902200000000     0.431133333333     0.097800000000     0          
O2       O      0.906033333333     0.455333333333     0.093966666667     0          
C1       C      0.916666666667     0.462900000000     0.083333333333     0          
C2       C      0.916666666667     0.482066666667     0.083333333333     0          
C3       C      0.905700000000     0.491033333333     0.094300000000     0          
H1       H      0.898366666667     0.485066666667     0.101633333333     0          
O2       O      0.739366666667     0.544666666667     0.260633333333     0          
C1       C      0.750000000000     0.537100000000     0.250000000000     0          
C2       C      0.750000000000     0.517933333333     0.250000000000     0          
C3       C      0.739033333333     0.508966666667     0.260966666667     0          
H1       H      0.731700000000     0.514933333333     0.268300000000     0          
O2       O      0.739366666667     0.455333333333     0.072700000000     0          
C1       C      0.750000000000     0.462900000000     0.083333333333     0          
C2       C      0.750000000000     0.482066666667     0.083333333333     0          
C3       C      0.739033333333     0.491033333333     0.072366666667     0          
H1       H      0.731700000000     0.485066666667     0.065033333333     0          
O2       O      0.927300000000     0.544666666667     0.072700000000     0          
C1       C      0.916666666667     0.537100000000     0.083333333333     0          
C2       C      0.916666666667     0.517933333333     0.083333333333     0          
C3       C      0.927633333333     0.508966666667     0.072366666667     0          
H1       H      0.934966666667     0.514933333333     0.065033333333     0          
O2       O      0.927300000000     0.455333333333     0.260633333333     0          
C1       C      0.916666666667     0.462900000000     0.250000000000     0          
C2       C      0.916666666667     0.482066666667     0.250000000000     0          
C3       C      0.927633333333     0.491033333333     0.260966666667     0          
H1       H      0.934966666667     0.485066666667     0.268300000000     0          
O2       O      0.906033333333     0.427300000000     0.122000000000     0          
C3       C      0.905700000000     0.427633333333     0.157700000000     0          
H1       H      0.898366666667     0.434966666667     0.151733333333     0          
O2       O      0.739366666667     0.406033333333     0.122000000000     0          
C3       C      0.739033333333     0.405700000000     0.157700000000     0          
H1       H      0.731700000000     0.398366666667     0.151733333333     0          
O2       O      0.760633333333     0.572700000000     0.122000000000     0          
C3       C      0.760966666667     0.572366666667     0.157700000000     0          
H1       H      0.768300000000     0.565033333333     0.151733333333     0          
O2       O      0.927300000000     0.593966666667     0.122000000000     0          
C3       C      0.927633333333     0.594300000000     0.157700000000     0          
H1       H      0.934966666667     0.601633333333     0.151733333333     0          
O2       O      0.906033333333     0.572700000000     0.211333333333     0          
C3       C      0.905700000000     0.572366666667     0.175633333333     0          
H1       H      0.898366666667     0.565033333333     0.181600000000     0          
O2       O      0.927300000000     0.406033333333     0.211333333333     0          
C3       C      0.927633333333     0.405700000000     0.175633333333     0          
H1       H      0.934966666667     0.398366666667     0.181600000000     0          
O2       O      0.760633333333     0.427300000000     0.211333333333     0          
C3       C      0.760966666667     0.427633333333     0.175633333333     0          
H1       H      0.768300000000     0.434966666667     0.181600000000     0          
O2       O      0.739366666667     0.593966666667     0.211333333333     0          
C3       C      0.739033333333     0.594300000000     0.175633333333     0          
H1       H      0.731700000000     0.601633333333     0.181600000000     0          
O2       O      0.760633333333     0.455333333333     0.093966666667     0          
C3       C      0.760966666667     0.491033333333     0.094300000000     0          
H1       H      0.768300000000     0.485066666667     0.101633333333     0          
O2       O      0.906033333333     0.544666666667     0.093966666667     0          
C3       C      0.905700000000     0.508966666667     0.094300000000     0          
H1       H      0.898366666667     0.514933333333     0.101633333333     0          
O2       O      0.906033333333     0.455333333333     0.239366666667     0          
C3       C      0.905700000000     0.491033333333     0.239033333333     0          
H1       H      0.898366666667     0.485066666667     0.231700000000     0          
O2       O      0.760633333333     0.544666666667     0.239366666667     0          
C3       C      0.760966666667     0.508966666667     0.239033333333     0          
H1       H      0.768300000000     0.514933333333     0.231700000000     0          
O2       O      0.927300000000     0.455333333333     0.072700000000     0          
C3       C      0.927633333333     0.491033333333     0.072366666667     0          
H1       H      0.934966666667     0.485066666667     0.065033333333     0          
O2       O      0.927300000000     0.544666666667     0.260633333333     0          
C3       C      0.927633333333     0.508966666667     0.260966666667     0          
H1       H      0.934966666667     0.514933333333     0.268300000000     0          
O2       O      0.739366666667     0.455333333333     0.260633333333     0          
C3       C      0.739033333333     0.491033333333     0.260966666667     0          
H1       H      0.731700000000     0.485066666667     0.268300000000     0          
O2       O      0.739366666667     0.544666666667     0.072700000000     0          
C3       C      0.739033333333     0.508966666667     0.072366666667     0          
H1       H      0.731700000000     0.514933333333     0.065033333333     0          
O2       O      0.878000000000     0.427300000000     0.239366666667     0          
C1       C      0.870433333333     0.416666666667     0.250000000000     0          
C2       C      0.851266666667     0.416666666667     0.250000000000     0          
C3       C      0.842300000000     0.427633333333     0.239033333333     0          
H1       H      0.848266666667     0.434966666667     0.231700000000     0          
O2       O      0.788666666667     0.572700000000     0.239366666667     0          
C1       C      0.796233333333     0.583333333333     0.250000000000     0          
C2       C      0.815400000000     0.583333333333     0.250000000000     0          
C3       C      0.824366666667     0.572366666667     0.239033333333     0          
H1       H      0.818400000000     0.565033333333     0.231700000000     0          
O2       O      0.878000000000     0.572700000000     0.093966666667     0          
C1       C      0.870433333333     0.583333333333     0.083333333333     0          
C2       C      0.851266666667     0.583333333333     0.083333333333     0          
C3       C      0.842300000000     0.572366666667     0.094300000000     0          
H1       H      0.848266666667     0.565033333333     0.101633333333     0          
O2       O      0.788666666667     0.427300000000     0.093966666667     0          
C1       C      0.796233333333     0.416666666667     0.083333333333     0          
C2       C      0.815400000000     0.416666666667     0.083333333333     0          
C3       C      0.824366666667     0.427633333333     0.094300000000     0          
H1       H      0.818400000000     0.434966666667     0.101633333333     0          
O2       O      0.878000000000     0.406033333333     0.072700000000     0          
C1       C      0.870433333333     0.416666666667     0.083333333333     0          
C2       C      0.851266666667     0.416666666667     0.083333333333     0          
C3       C      0.842300000000     0.405700000000     0.072366666667     0          
H1       H      0.848266666667     0.398366666667     0.065033333333     0          
O2       O      0.788666666667     0.593966666667     0.072700000000     0          
C1       C      0.796233333333     0.583333333333     0.083333333333     0          
C2       C      0.815400000000     0.583333333333     0.083333333333     0          
C3       C      0.824366666667     0.594300000000     0.072366666667     0          
H1       H      0.818400000000     0.601633333333     0.065033333333     0          
O2       O      0.878000000000     0.593966666667     0.260633333333     0          
C1       C      0.870433333333     0.583333333333     0.250000000000     0          
C2       C      0.851266666667     0.583333333333     0.250000000000     0          
C3       C      0.842300000000     0.594300000000     0.260966666667     0          
H1       H      0.848266666667     0.601633333333     0.268300000000     0          
O2       O      0.788666666667     0.406033333333     0.260633333333     0          
C1       C      0.796233333333     0.416666666667     0.250000000000     0          
C2       C      0.815400000000     0.416666666667     0.250000000000     0          
C3       C      0.824366666667     0.405700000000     0.260966666667     0          
H1       H      0.818400000000     0.398366666667     0.268300000000     0          
O2       O      0.788666666667     0.572700000000     0.093966666667     0          
C3       C      0.824366666667     0.572366666667     0.094300000000     0          
H1       H      0.818400000000     0.565033333333     0.101633333333     0          
O2       O      0.878000000000     0.427300000000     0.093966666667     0          
C3       C      0.842300000000     0.427633333333     0.094300000000     0          
H1       H      0.848266666667     0.434966666667     0.101633333333     0          
O2       O      0.788666666667     0.427300000000     0.239366666667     0          
C3       C      0.824366666667     0.427633333333     0.239033333333     0          
H1       H      0.818400000000     0.434966666667     0.231700000000     0          
O2       O      0.878000000000     0.572700000000     0.239366666667     0          
C3       C      0.842300000000     0.572366666667     0.239033333333     0          
H1       H      0.848266666667     0.565033333333     0.231700000000     0          
O2       O      0.788666666667     0.593966666667     0.260633333333     0          
C3       C      0.824366666667     0.594300000000     0.260966666667     0          
H1       H      0.818400000000     0.601633333333     0.268300000000     0          
O2       O      0.878000000000     0.406033333333     0.260633333333     0          
C3       C      0.842300000000     0.405700000000     0.260966666667     0          
H1       H      0.848266666667     0.398366666667     0.268300000000     0          
O2       O      0.788666666667     0.406033333333     0.072700000000     0          
C3       C      0.824366666667     0.405700000000     0.072366666667     0          
H1       H      0.818400000000     0.398366666667     0.065033333333     0          
O2       O      0.878000000000     0.593966666667     0.072700000000     0          
C3       C      0.842300000000     0.594300000000     0.072366666667     0          
H1       H      0.848266666667     0.601633333333     0.065033333333     0          
Zn1      Zn     0.764466666667     0.402200000000     0.402200000000     0          
O1       O      0.750000000000     0.416666666667     0.416666666667     0          
O2       O      0.760633333333     0.406033333333     0.378000000000     0          
C1       C      0.750000000000     0.416666666667     0.370433333333     0          
C2       C      0.750000000000     0.416666666667     0.351266666667     0          
C3       C      0.760966666667     0.405700000000     0.342300000000     0          
H1       H      0.768300000000     0.398366666667     0.348266666667     0          
Zn1      Zn     0.931133333333     0.431133333333     0.402200000000     0          
O1       O      0.916666666667     0.416666666667     0.416666666667     0          
O2       O      0.927300000000     0.427300000000     0.378000000000     0          
C1       C      0.916666666667     0.416666666667     0.370433333333     0          
C2       C      0.916666666667     0.416666666667     0.351266666667     0          
C3       C      0.927633333333     0.427633333333     0.342300000000     0          
H1       H      0.934966666667     0.434966666667     0.348266666667     0          
Zn1      Zn     0.902200000000     0.597800000000     0.402200000000     0          
O1       O      0.916666666667     0.583333333333     0.416666666667     0          
O2       O      0.906033333333     0.593966666667     0.378000000000     0          
C1       C      0.916666666667     0.583333333333     0.370433333333     0          
C2       C      0.916666666667     0.583333333333     0.351266666667     0          
C3       C      0.905700000000     0.594300000000     0.342300000000     0          
H1       H      0.898366666667     0.601633333333     0.348266666667     0          
Zn1      Zn     0.735533333333     0.568866666667     0.402200000000     0          
O1       O      0.750000000000     0.583333333333     0.416666666667     0          
O2       O      0.739366666667     0.572700000000     0.378000000000     0          
C1       C      0.750000000000     0.583333333333     0.370433333333     0          
C2       C      0.750000000000     0.583333333333     0.351266666667     0          
C3       C      0.739033333333     0.572366666667     0.342300000000     0          
H1       H      0.731700000000     0.565033333333     0.348266666667     0          
Zn1      Zn     0.764466666667     0.597800000000     0.597800000000     0          
O1       O      0.750000000000     0.583333333333     0.583333333333     0          
O2       O      0.760633333333     0.593966666667     0.622000000000     0          
C1       C      0.750000000000     0.583333333333     0.629566666667     0          
C2       C      0.750000000000     0.583333333333     0.648733333333     0          
C3       C      0.760966666667     0.594300000000     0.657700000000     0          
H1       H      0.768300000000     0.601633333333     0.651733333333     0          
Zn1      Zn     0.735533333333     0.431133333333     0.597800000000     0          
O1       O      0.750000000000     0.416666666667     0.583333333333     0          
O2       O      0.739366666667     0.427300000000     0.622000000000     0          
C1       C      0.750000000000     0.416666666667     0.629566666667     0          
C2       C      0.750000000000     0.416666666667     0.648733333333     0          
C3       C      0.739033333333     0.427633333333     0.657700000000     0          
H1       H      0.731700000000     0.434966666667     0.651733333333     0          
Zn1      Zn     0.902200000000     0.402200000000     0.597800000000     0          
O1       O      0.916666666667     0.416666666667     0.583333333333     0          
O2       O      0.906033333333     0.406033333333     0.622000000000     0          
C1       C      0.916666666667     0.416666666667     0.629566666667     0          
C2       C      0.916666666667     0.416666666667     0.648733333333     0          
C3       C      0.905700000000     0.405700000000     0.657700000000     0          
H1       H      0.898366666667     0.398366666667     0.651733333333     0          
Zn1      Zn     0.931133333333     0.568866666667     0.597800000000     0          
O1       O      0.916666666667     0.583333333333     0.583333333333     0          
O2       O      0.927300000000     0.572700000000     0.622000000000     0          
C1       C      0.916666666667     0.583333333333     0.629566666667     0          
C2       C      0.916666666667     0.583333333333     0.648733333333     0          
C3       C      0.927633333333     0.572366666667     0.657700000000     0          
H1       H      0.934966666667     0.565033333333     0.651733333333     0          
Zn1      Zn     0.735533333333     0.431133333333     0.402200000000     0          
O2       O      0.711333333333     0.427300000000     0.406033333333     0          
C1       C      0.703766666667     0.416666666667     0.416666666667     0          
C2       C      0.684600000000     0.416666666667     0.416666666667     0          
C3       C      0.675633333333     0.427633333333     0.405700000000     0          
H1       H      0.681600000000     0.434966666667     0.398366666667     0          
Zn1      Zn     0.902200000000     0.402200000000     0.402200000000     0          
O2       O      0.906033333333     0.378000000000     0.406033333333     0          
C1       C      0.916666666667     0.370433333333     0.416666666667     0          
C2       C      0.916666666667     0.351266666667     0.416666666667     0          
C3       C      0.905700000000     0.342300000000     0.405700000000     0          
H1       H      0.898366666667     0.348266666667     0.398366666667     0          
Zn1      Zn     0.931133333333     0.568866666667     0.402200000000     0          
O2       O      0.955333333333     0.572700000000     0.406033333333     0          
C1       C      0.962900000000     0.583333333333     0.416666666667     0          
C2       C      0.982066666667     0.583333333333     0.416666666667     0          
C3       C      0.991033333333     0.572366666667     0.405700000000     0          
H1       H      0.985066666667     0.565033333333     0.398366666667     0          
Zn1      Zn     0.764466666667     0.597800000000     0.402200000000     0          
O2       O      0.760633333333     0.622000000000     0.406033333333     0          
C1       C      0.750000000000     0.629566666667     0.416666666667     0          
C2       C      0.750000000000     0.648733333333     0.416666666667     0          
C3       C      0.760966666667     0.657700000000     0.405700000000     0          
H1       H      0.768300000000     0.651733333333     0.398366666667     0          
Zn1      Zn     0.735533333333     0.568866666667     0.597800000000     0          
O2       O      0.711333333333     0.572700000000     0.593966666667     0          
C1       C      0.703766666667     0.583333333333     0.583333333333     0          
C2       C      0.684600000000     0.583333333333     0.583333333333     0          
C3       C      0.675633333333     0.572366666667     0.594300000000     0          
H1       H      0.681600000000     0.565033333333     0.601633333333     0          
Zn1      Zn     0.764466666667     0.402200000000     0.597800000000     0          
O2       O      0.760633333333     0.378000000000     0.593966666667     0          
C1       C      0.750000000000     0.370433333333     0.583333333333     0          
C2       C      0.750000000000     0.351266666667     0.583333333333     0          
C3       C      0.760966666667     0.342300000000     0.594300000000     0          
H1       H      0.768300000000     0.348266666667     0.601633333333     0          
Zn1      Zn     0.931133333333     0.431133333333     0.597800000000     0          
O2       O      0.955333333333     0.427300000000     0.593966666667     0          
C1       C      0.962900000000     0.416666666667     0.583333333333     0          
C2       C      0.982066666667     0.416666666667     0.583333333333     0          
C3       C      0.991033333333     0.427633333333     0.594300000000     0          
H1       H      0.985066666667     0.434966666667     0.601633333333     0          
Zn1      Zn     0.902200000000     0.597800000000     0.597800000000     0          
O2       O      0.906033333333     0.622000000000     0.593966666667     0          
C1       C      0.916666666667     0.629566666667     0.583333333333     0          
C2       C      0.916666666667     0.648733333333     0.583333333333     0          
C3       C      0.905700000000     0.657700000000     0.594300000000     0          
H1       H      0.898366666667     0.651733333333     0.601633333333     0          
Zn1      Zn     0.735533333333     0.402200000000     0.431133333333     0          
O2       O      0.739366666667     0.378000000000     0.427300000000     0          
C1       C      0.750000000000     0.370433333333     0.416666666667     0          
C2       C      0.750000000000     0.351266666667     0.416666666667     0          
C3       C      0.739033333333     0.342300000000     0.427633333333     0          
H1       H      0.731700000000     0.348266666667     0.434966666667     0          
Zn1      Zn     0.735533333333     0.597800000000     0.568866666667     0          
O2       O      0.739366666667     0.622000000000     0.572700000000     0          
C1       C      0.750000000000     0.629566666667     0.583333333333     0          
C2       C      0.750000000000     0.648733333333     0.583333333333     0          
C3       C      0.739033333333     0.657700000000     0.572366666667     0          
H1       H      0.731700000000     0.651733333333     0.565033333333     0          
Zn1      Zn     0.735533333333     0.402200000000     0.568866666667     0          
O2       O      0.711333333333     0.406033333333     0.572700000000     0          
C1       C      0.703766666667     0.416666666667     0.583333333333     0          
C2       C      0.684600000000     0.416666666667     0.583333333333     0          
C3       C      0.675633333333     0.405700000000     0.572366666667     0          
H1       H      0.681600000000     0.398366666667     0.565033333333     0          
Zn1      Zn     0.931133333333     0.402200000000     0.568866666667     0          
O2       O      0.927300000000     0.378000000000     0.572700000000     0          
C1       C      0.916666666667     0.370433333333     0.583333333333     0          
C2       C      0.916666666667     0.351266666667     0.583333333333     0          
C3       C      0.927633333333     0.342300000000     0.572366666667     0          
H1       H      0.934966666667     0.348266666667     0.565033333333     0          
Zn1      Zn     0.931133333333     0.597800000000     0.568866666667     0          
O2       O      0.955333333333     0.593966666667     0.572700000000     0          
C1       C      0.962900000000     0.583333333333     0.583333333333     0          
C2       C      0.982066666667     0.583333333333     0.583333333333     0          
C3       C      0.991033333333     0.594300000000     0.572366666667     0          
H1       H      0.985066666667     0.601633333333     0.565033333333     0          
Zn1      Zn     0.931133333333     0.597800000000     0.431133333333     0          
O2       O      0.927300000000     0.622000000000     0.427300000000     0          
C1       C      0.916666666667     0.629566666667     0.416666666667     0          
C2       C      0.916666666667     0.648733333333     0.416666666667     0          
C3       C      0.927633333333     0.657700000000     0.427633333333     0          
H1       H      0.934966666667     0.651733333333     0.434966666667     0          
Zn1      Zn     0.735533333333     0.597800000000     0.431133333333     0          
O2       O      0.711333333333     0.593966666667     0.427300000000     0          
C1       C      0.703766666667     0.583333333333     0.416666666667     0          
C2       C      0.684600000000     0.583333333333     0.416666666667     0          
C3       C      0.675633333333     0.594300000000     0.427633333333     0          
H1       H      0.681600000000     0.601633333333     0.434966666667     0          
Zn1      Zn     0.931133333333     0.402200000000     0.431133333333     0          
O2       O      0.955333333333     0.406033333333     0.427300000000     0          
C1       C      0.962900000000     0.416666666667     0.416666666667     0          
C2       C      0.982066666667     0.416666666667     0.416666666667     0          
C3       C      0.991033333333     0.405700000000     0.427633333333     0          
H1       H      0.985066666667     0.398366666667     0.434966666667     0          
O2       O      0.906033333333     0.593966666667     0.622000000000     0          
C3       C      0.905700000000     0.594300000000     0.657700000000     0          
H1       H      0.898366666667     0.601633333333     0.651733333333     0          
O2       O      0.739366666667     0.572700000000     0.622000000000     0          
C3       C      0.739033333333     0.572366666667     0.657700000000     0          
H1       H      0.731700000000     0.565033333333     0.651733333333     0          
O2       O      0.760633333333     0.406033333333     0.622000000000     0          
C3       C      0.760966666667     0.405700000000     0.657700000000     0          
H1       H      0.768300000000     0.398366666667     0.651733333333     0          
O2       O      0.927300000000     0.427300000000     0.622000000000     0          
C3       C      0.927633333333     0.427633333333     0.657700000000     0          
H1       H      0.934966666667     0.434966666667     0.651733333333     0          
O2       O      0.906033333333     0.406033333333     0.378000000000     0          
C3       C      0.905700000000     0.405700000000     0.342300000000     0          
H1       H      0.898366666667     0.398366666667     0.348266666667     0          
O2       O      0.927300000000     0.572700000000     0.378000000000     0          
C3       C      0.927633333333     0.572366666667     0.342300000000     0          
H1       H      0.934966666667     0.565033333333     0.348266666667     0          
O2       O      0.760633333333     0.593966666667     0.378000000000     0          
C3       C      0.760966666667     0.594300000000     0.342300000000     0          
H1       H      0.768300000000     0.601633333333     0.348266666667     0          
O2       O      0.739366666667     0.427300000000     0.378000000000     0          
C3       C      0.739033333333     0.427633333333     0.342300000000     0          
H1       H      0.731700000000     0.434966666667     0.348266666667     0          
O2       O      0.955333333333     0.572700000000     0.593966666667     0          
C3       C      0.991033333333     0.572366666667     0.594300000000     0          
H1       H      0.985066666667     0.565033333333     0.601633333333     0          
O2       O      0.760633333333     0.622000000000     0.593966666667     0          
C3       C      0.760966666667     0.657700000000     0.594300000000     0          
H1       H      0.768300000000     0.651733333333     0.601633333333     0          
O2       O      0.711333333333     0.427300000000     0.593966666667     0          
C3       C      0.675633333333     0.427633333333     0.594300000000     0          
H1       H      0.681600000000     0.434966666667     0.601633333333     0          
O2       O      0.906033333333     0.378000000000     0.593966666667     0          
C3       C      0.905700000000     0.342300000000     0.594300000000     0          
H1       H      0.898366666667     0.348266666667     0.601633333333     0          
O2       O      0.955333333333     0.427300000000     0.406033333333     0          
C3       C      0.991033333333     0.427633333333     0.405700000000     0          
H1       H      0.985066666667     0.434966666667     0.398366666667     0          
O2       O      0.906033333333     0.622000000000     0.406033333333     0          
C3       C      0.905700000000     0.657700000000     0.405700000000     0          
H1       H      0.898366666667     0.651733333333     0.398366666667     0          
O2       O      0.711333333333     0.572700000000     0.406033333333     0          
C3       C      0.675633333333     0.572366666667     0.405700000000     0          
H1       H      0.681600000000     0.565033333333     0.398366666667     0          
O2       O      0.760633333333     0.378000000000     0.406033333333     0          
C3       C      0.760966666667     0.342300000000     0.405700000000     0          
H1       H      0.768300000000     0.348266666667     0.398366666667     0          
O2       O      0.927300000000     0.622000000000     0.572700000000     0          
C3       C      0.927633333333     0.657700000000     0.572366666667     0          
H1       H      0.934966666667     0.651733333333     0.565033333333     0          
O2       O      0.927300000000     0.378000000000     0.427300000000     0          
C3       C      0.927633333333     0.342300000000     0.427633333333     0          
H1       H      0.934966666667     0.348266666667     0.434966666667     0          
O2       O      0.955333333333     0.593966666667     0.427300000000     0          
C3       C      0.991033333333     0.594300000000     0.427633333333     0          
H1       H      0.985066666667     0.601633333333     0.434966666667     0          
O2       O      0.739366666667     0.622000000000     0.427300000000     0          
C3       C      0.739033333333     0.657700000000     0.427633333333     0          
H1       H      0.731700000000     0.651733333333     0.434966666667     0          
O2       O      0.711333333333     0.406033333333     0.427300000000     0          
C3       C      0.675633333333     0.405700000000     0.427633333333     0          
H1       H      0.681600000000     0.398366666667     0.434966666667     0          
O2       O      0.739366666667     0.378000000000     0.572700000000     0          
C3       C      0.739033333333     0.342300000000     0.572366666667     0          
H1       H      0.731700000000     0.348266666667     0.565033333333     0          
O2       O      0.955333333333     0.406033333333     0.572700000000     0          
C3       C      0.991033333333     0.405700000000     0.572366666667     0          
H1       H      0.985066666667     0.398366666667     0.565033333333     0          
O2       O      0.711333333333     0.593966666667     0.572700000000     0          
C3       C      0.675633333333     0.594300000000     0.572366666667     0          
H1       H      0.681600000000     0.601633333333     0.565033333333     0          
Zn1      Zn     0.764466666667     0.568866666667     0.568866666667     0          
O2       O      0.760633333333     0.572700000000     0.544666666667     0          
C1       C      0.750000000000     0.583333333333     0.537100000000     0          
C2       C      0.750000000000     0.583333333333     0.517933333333     0          
C3       C      0.760966666667     0.572366666667     0.508966666667     0          
H1       H      0.768300000000     0.565033333333     0.514933333333     0          
O2       O      0.927300000000     0.593966666667     0.544666666667     0          
C1       C      0.916666666667     0.583333333333     0.537100000000     0          
C2       C      0.916666666667     0.583333333333     0.517933333333     0          
C3       C      0.927633333333     0.594300000000     0.508966666667     0          
H1       H      0.934966666667     0.601633333333     0.514933333333     0          
Zn1      Zn     0.902200000000     0.431133333333     0.568866666667     0          
O2       O      0.906033333333     0.427300000000     0.544666666667     0          
C1       C      0.916666666667     0.416666666667     0.537100000000     0          
C2       C      0.916666666667     0.416666666667     0.517933333333     0          
C3       C      0.905700000000     0.427633333333     0.508966666667     0          
H1       H      0.898366666667     0.434966666667     0.514933333333     0          
O2       O      0.739366666667     0.406033333333     0.544666666667     0          
C1       C      0.750000000000     0.416666666667     0.537100000000     0          
C2       C      0.750000000000     0.416666666667     0.517933333333     0          
C3       C      0.739033333333     0.405700000000     0.508966666667     0          
H1       H      0.731700000000     0.398366666667     0.514933333333     0          
Zn1      Zn     0.764466666667     0.431133333333     0.431133333333     0          
O2       O      0.760633333333     0.427300000000     0.455333333333     0          
C1       C      0.750000000000     0.416666666667     0.462900000000     0          
C2       C      0.750000000000     0.416666666667     0.482066666667     0          
C3       C      0.760966666667     0.427633333333     0.491033333333     0          
H1       H      0.768300000000     0.434966666667     0.485066666667     0          
O2       O      0.739366666667     0.593966666667     0.455333333333     0          
C1       C      0.750000000000     0.583333333333     0.462900000000     0          
C2       C      0.750000000000     0.583333333333     0.482066666667     0          
C3       C      0.739033333333     0.594300000000     0.491033333333     0          
H1       H      0.731700000000     0.601633333333     0.485066666667     0          
Zn1      Zn     0.902200000000     0.568866666667     0.431133333333     0          
O2       O      0.906033333333     0.572700000000     0.455333333333     0          
C1       C      0.916666666667     0.583333333333     0.462900000000     0          
C2       C      0.916666666667     0.583333333333     0.482066666667     0          
C3       C      0.905700000000     0.572366666667     0.491033333333     0          
H1       H      0.898366666667     0.565033333333     0.485066666667     0          
O2       O      0.927300000000     0.406033333333     0.455333333333     0          
C1       C      0.916666666667     0.416666666667     0.462900000000     0          
C2       C      0.916666666667     0.416666666667     0.482066666667     0          
C3       C      0.927633333333     0.405700000000     0.491033333333     0          
H1       H      0.934966666667     0.398366666667     0.485066666667     0          
Zn1      Zn     0.902200000000     0.568866666667     0.568866666667     0          
O2       O      0.906033333333     0.544666666667     0.572700000000     0          
C1       C      0.916666666667     0.537100000000     0.583333333333     0          
C2       C      0.916666666667     0.517933333333     0.583333333333     0          
C3       C      0.905700000000     0.508966666667     0.572366666667     0          
H1       H      0.898366666667     0.514933333333     0.565033333333     0          
Zn1      Zn     0.764466666667     0.431133333333     0.568866666667     0          
O2       O      0.760633333333     0.455333333333     0.572700000000     0          
C1       C      0.750000000000     0.462900000000     0.583333333333     0          
C2       C      0.750000000000     0.482066666667     0.583333333333     0          
C3       C      0.760966666667     0.491033333333     0.572366666667     0          
H1       H      0.768300000000     0.485066666667     0.565033333333     0          
Zn1      Zn     0.764466666667     0.568866666667     0.431133333333     0          
O2       O      0.760633333333     0.544666666667     0.427300000000     0          
C1       C      0.750000000000     0.537100000000     0.416666666667     0          
C2       C      0.750000000000     0.517933333333     0.416666666667     0          
C3       C      0.760966666667     0.508966666667     0.427633333333     0          
H1       H      0.768300000000     0.514933333333     0.434966666667     0          
Zn1      Zn     0.902200000000     0.431133333333     0.431133333333     0          
O2       O      0.906033333333     0.455333333333     0.427300000000     0          
C1       C      0.916666666667     0.462900000000     0.416666666667     0          
C2       C      0.916666666667     0.482066666667     0.416666666667     0          
C3       C      0.905700000000     0.491033333333     0.427633333333     0          
H1       H      0.898366666667     0.485066666667     0.434966666667     0          
O2       O      0.739366666667     0.544666666667     0.593966666667     0          
C1       C      0.750000000000     0.537100000000     0.583333333333     0          
C2       C      0.750000000000     0.517933333333     0.583333333333     0          
C3       C      0.739033333333     0.508966666667     0.594300000000     0          
H1       H      0.731700000000     0.514933333333     0.601633333333     0          
O2       O      0.739366666667     0.455333333333     0.406033333333     0          
C1       C      0.750000000000     0.462900000000     0.416666666667     0          
C2       C      0.750000000000     0.482066666667     0.416666666667     0          
C3       C      0.739033333333     0.491033333333     0.405700000000     0          
H1       H      0.731700000000     0.485066666667     0.398366666667     0          
O2       O      0.927300000000     0.544666666667     0.406033333333     0          
C1       C      0.916666666667     0.537100000000     0.416666666667     0          
C2       C      0.916666666667     0.517933333333     0.416666666667     0          
C3       C      0.927633333333     0.508966666667     0.405700000000     0          
H1       H      0.934966666667     0.514933333333     0.398366666667     0          
O2       O      0.927300000000     0.455333333333     0.593966666667     0          
C1       C      0.916666666667     0.462900000000     0.583333333333     0          
C2       C      0.916666666667     0.482066666667     0.583333333333     0          
C3       C      0.927633333333     0.491033333333     0.594300000000     0          
H1       H      0.934966666667     0.485066666667     0.601633333333     0          
O2       O      0.906033333333     0.427300000000     0.455333333333     0          
C3       C      0.905700000000     0.427633333333     0.491033333333     0          
H1       H      0.898366666667     0.434966666667     0.485066666667     0          
O2       O      0.739366666667     0.406033333333     0.455333333333     0          
C3       C      0.739033333333     0.405700000000     0.491033333333     0          
H1       H      0.731700000000     0.398366666667     0.485066666667     0          
O2       O      0.760633333333     0.572700000000     0.455333333333     0          
C3       C      0.760966666667     0.572366666667     0.491033333333     0          
H1       H      0.768300000000     0.565033333333     0.485066666667     0          
O2       O      0.927300000000     0.593966666667     0.455333333333     0          
C3       C      0.927633333333     0.594300000000     0.491033333333     0          
H1       H      0.934966666667     0.601633333333     0.485066666667     0          
O2       O      0.906033333333     0.572700000000     0.544666666667     0          
C3       C      0.905700000000     0.572366666667     0.508966666667     0          
H1       H      0.898366666667     0.565033333333     0.514933333333     0          
O2       O      0.927300000000     0.406033333333     0.544666666667     0          
C3       C      0.927633333333     0.405700000000     0.508966666667     0          
H1       H      0.934966666667     0.398366666667     0.514933333333     0          
O2       O      0.760633333333     0.427300000000     0.544666666667     0          
C3       C      0.760966666667     0.427633333333     0.508966666667     0          
H1       H      0.768300000000     0.434966666667     0.514933333333     0          
O2       O      0.739366666667     0.593966666667     0.544666666667     0          
C3       C      0.739033333333     0.594300000000     0.508966666667     0          
H1       H      0.731700000000     0.601633333333     0.514933333333     0          
O2       O      0.760633333333     0.455333333333     0.427300000000     0          
C3       C      0.760966666667     0.491033333333     0.427633333333     0          
H1       H      0.768300000000     0.485066666667     0.434966666667     0          
O2       O      0.906033333333     0.544666666667     0.427300000000     0          
C3       C      0.905700000000     0.508966666667     0.427633333333     0          
H1       H      0.898366666667     0.514933333333     0.434966666667     0          
O2       O      0.906033333333     0.455333333333     0.572700000000     0          
C3       C      0.905700000000     0.491033333333     0.572366666667     0          
H1       H      0.898366666667     0.485066666667     0.565033333333     0          
O2       O      0.760633333333     0.544666666667     0.572700000000     0          
C3       C      0.760966666667     0.508966666667     0.572366666667     0          
H1       H      0.768300000000     0.514933333333     0.565033333333     0          
O2       O      0.927300000000     0.455333333333     0.406033333333     0          
C3       C      0.927633333333     0.491033333333     0.405700000000     0          
H1       H      0.934966666667     0.485066666667     0.398366666667     0          
O2       O      0.927300000000     0.544666666667     0.593966666667     0          
C3       C      0.927633333333     0.508966666667     0.594300000000     0          
H1       H      0.934966666667     0.514933333333     0.601633333333     0          
O2       O      0.739366666667     0.455333333333     0.593966666667     0          
C3       C      0.739033333333     0.491033333333     0.594300000000     0          
H1       H      0.731700000000     0.485066666667     0.601633333333     0          
O2       O      0.739366666667     0.544666666667     0.406033333333     0          
C3       C      0.739033333333     0.508966666667     0.405700000000     0          
H1       H      0.731700000000     0.514933333333     0.398366666667     0          
O2       O      0.878000000000     0.427300000000     0.572700000000     0          
C1       C      0.870433333333     0.416666666667     0.583333333333     0          
C2       C      0.851266666667     0.416666666667     0.583333333333     0          
C3       C      0.842300000000     0.427633333333     0.572366666667     0          
H1       H      0.848266666667     0.434966666667     0.565033333333     0          
O2       O      0.788666666667     0.572700000000     0.572700000000     0          
C1       C      0.796233333333     0.583333333333     0.583333333333     0          
C2       C      0.815400000000     0.583333333333     0.583333333333     0          
C3       C      0.824366666667     0.572366666667     0.572366666667     0          
H1       H      0.818400000000     0.565033333333     0.565033333333     0          
O2       O      0.878000000000     0.572700000000     0.427300000000     0          
C1       C      0.870433333333     0.583333333333     0.416666666667     0          
C2       C      0.851266666667     0.583333333333     0.416666666667     0          
C3       C      0.842300000000     0.572366666667     0.427633333333     0          
H1       H      0.848266666667     0.565033333333     0.434966666667     0          
O2       O      0.788666666667     0.427300000000     0.427300000000     0          
C1       C      0.796233333333     0.416666666667     0.416666666667     0          
C2       C      0.815400000000     0.416666666667     0.416666666667     0          
C3       C      0.824366666667     0.427633333333     0.427633333333     0          
H1       H      0.818400000000     0.434966666667     0.434966666667     0          
O2       O      0.878000000000     0.406033333333     0.406033333333     0          
C1       C      0.870433333333     0.416666666667     0.416666666667     0          
C2       C      0.851266666667     0.416666666667     0.416666666667     0          
C3       C      0.842300000000     0.405700000000     0.405700000000     0          
H1       H      0.848266666667     0.398366666667     0.398366666667     0          
O2       O      0.788666666667     0.593966666667     0.406033333333     0          
C1       C      0.796233333333     0.583333333333     0.416666666667     0          
C2       C      0.815400000000     0.583333333333     0.416666666667     0          
C3       C      0.824366666667     0.594300000000     0.405700000000     0          
H1       H      0.818400000000     0.601633333333     0.398366666667     0          
O2       O      0.878000000000     0.593966666667     0.593966666667     0          
C1       C      0.870433333333     0.583333333333     0.583333333333     0          
C2       C      0.851266666667     0.583333333333     0.583333333333     0          
C3       C      0.842300000000     0.594300000000     0.594300000000     0          
H1       H      0.848266666667     0.601633333333     0.601633333333     0          
O2       O      0.788666666667     0.406033333333     0.593966666667     0          
C1       C      0.796233333333     0.416666666667     0.583333333333     0          
C2       C      0.815400000000     0.416666666667     0.583333333333     0          
C3       C      0.824366666667     0.405700000000     0.594300000000     0          
H1       H      0.818400000000     0.398366666667     0.601633333333     0          
O2       O      0.788666666667     0.572700000000     0.427300000000     0          
C3       C      0.824366666667     0.572366666667     0.427633333333     0          
H1       H      0.818400000000     0.565033333333     0.434966666667     0          
O2       O      0.878000000000     0.427300000000     0.427300000000     0          
C3       C      0.842300000000     0.427633333333     0.427633333333     0          
H1       H      0.848266666667     0.434966666667     0.434966666667     0          
O2       O      0.788666666667     0.427300000000     0.572700000000     0          
C3       C      0.824366666667     0.427633333333     0.572366666667     0          
H1       H      0.818400000000     0.434966666667     0.565033333333     0          
O2       O      0.878000000000     0.572700000000     0.572700000000     0          
C3       C      0.842300000000     0.572366666667     0.572366666667     0          
H1       H      0.848266666667     0.565033333333     0.565033333333     0          
O2       O      0.788666666667     0.593966666667     0.593966666667     0          
C3       C      0.824366666667     0.594300000000     0.594300000000     0          
H1       H      0.818400000000     0.601633333333     0.601633333333     0          
O2       O      0.878000000000     0.406033333333     0.593966666667     0          
C3       C      0.842300000000     0.405700000000     0.594300000000     0          
H1       H      0.848266666667     0.398366666667     0.601633333333     0          
O2       O      0.788666666667     0.406033333333     0.406033333333     0          
C3       C      0.824366666667     0.405700000000     0.405700000000     0          
H1       H      0.818400000000     0.398366666667     0.398366666667     0          
O2       O      0.878000000000     0.593966666667     0.406033333333     0          
C3       C      0.842300000000     0.594300000000     0.405700000000     0          
H1       H      0.848266666667     0.601633333333     0.398366666667     0          
Zn1      Zn     0.764466666667     0.402200000000     0.735533333333     0          
O1       O      0.750000000000     0.416666666667     0.750000000000     0          
O2       O      0.760633333333     0.406033333333     0.711333333333     0          
C1       C      0.750000000000     0.416666666667     0.703766666667     0          
C2       C      0.750000000000     0.416666666667     0.684600000000     0          
C3       C      0.760966666667     0.405700000000     0.675633333333     0          
H1       H      0.768300000000     0.398366666667     0.681600000000     0          
Zn1      Zn     0.931133333333     0.431133333333     0.735533333333     0          
O1       O      0.916666666667     0.416666666667     0.750000000000     0          
O2       O      0.927300000000     0.427300000000     0.711333333333     0          
C1       C      0.916666666667     0.416666666667     0.703766666667     0          
C2       C      0.916666666667     0.416666666667     0.684600000000     0          
C3       C      0.927633333333     0.427633333333     0.675633333333     0          
H1       H      0.934966666667     0.434966666667     0.681600000000     0          
Zn1      Zn     0.902200000000     0.597800000000     0.735533333333     0          
O1       O      0.916666666667     0.583333333333     0.750000000000     0          
O2       O      0.906033333333     0.593966666667     0.711333333333     0          
C1       C      0.916666666667     0.583333333333     0.703766666667     0          
C2       C      0.916666666667     0.583333333333     0.684600000000     0          
C3       C      0.905700000000     0.594300000000     0.675633333333     0          
H1       H      0.898366666667     0.601633333333     0.681600000000     0          
Zn1      Zn     0.735533333333     0.568866666667     0.735533333333     0          
O1       O      0.750000000000     0.583333333333     0.750000000000     0          
O2       O      0.739366666667     0.572700000000     0.711333333333     0          
C1       C      0.750000000000     0.583333333333     0.703766666667     0          
C2       C      0.750000000000     0.583333333333     0.684600000000     0          
C3       C      0.739033333333     0.572366666667     0.675633333333     0          
H1       H      0.731700000000     0.565033333333     0.681600000000     0          
Zn1      Zn     0.764466666667     0.597800000000     0.931133333333     0          
O1       O      0.750000000000     0.583333333333     0.916666666667     0          
O2       O      0.760633333333     0.593966666667     0.955333333333     0          
C1       C      0.750000000000     0.583333333333     0.962900000000     0          
C2       C      0.750000000000     0.583333333333     0.982066666667     0          
C3       C      0.760966666667     0.594300000000     0.991033333333     0          
H1       H      0.768300000000     0.601633333333     0.985066666667     0          
Zn1      Zn     0.735533333333     0.431133333333     0.931133333333     0          
O1       O      0.750000000000     0.416666666667     0.916666666667     0          
O2       O      0.739366666667     0.427300000000     0.955333333333     0          
C1       C      0.750000000000     0.416666666667     0.962900000000     0          
C2       C      0.750000000000     0.416666666667     0.982066666667     0          
C3       C      0.739033333333     0.427633333333     0.991033333333     0          
H1       H      0.731700000000     0.434966666667     0.985066666667     0          
Zn1      Zn     0.902200000000     0.402200000000     0.931133333333     0          
O1       O      0.916666666667     0.416666666667     0.916666666667     0          
O2       O      0.906033333333     0.406033333333     0.955333333333     0          
C1       C      0.916666666667     0.416666666667     0.962900000000     0          
C2       C      0.916666666667     0.416666666667     0.982066666667     0          
C3       C      0.905700000000     0.405700000000     0.991033333333     0          
H1       H      0.898366666667     0.398366666667     0.985066666667     0          
Zn1      Zn     0.931133333333     0.568866666667     0.931133333333     0          
O1       O      0.916666666667     0.583333333333     0.916666666667     0          
O2       O      0.927300000000     0.572700000000     0.955333333333     0          
C1       C      0.916666666667     0.583333333333     0.962900000000     0          
C2       C      0.916666666667     0.583333333333     0.982066666667     0          
C3       C      0.927633333333     0.572366666667     0.991033333333     0          
H1       H      0.934966666667     0.565033333333     0.985066666667     0          
Zn1      Zn     0.735533333333     0.431133333333     0.735533333333     0          
O2       O      0.711333333333     0.427300000000     0.739366666667     0          
C1       C      0.703766666667     0.416666666667     0.750000000000     0          
C2       C      0.684600000000     0.416666666667     0.750000000000     0          
C3       C      0.675633333333     0.427633333333     0.739033333333     0          
H1       H      0.681600000000     0.434966666667     0.731700000000     0          
Zn1      Zn     0.902200000000     0.402200000000     0.735533333333     0          
O2       O      0.906033333333     0.378000000000     0.739366666667     0          
C1       C      0.916666666667     0.370433333333     0.750000000000     0          
C2       C      0.916666666667     0.351266666667     0.750000000000     0          
C3       C      0.905700000000     0.342300000000     0.739033333333     0          
H1       H      0.898366666667     0.348266666667     0.731700000000     0          
Zn1      Zn     0.931133333333     0.568866666667     0.735533333333     0          
O2       O      0.955333333333     0.572700000000     0.739366666667     0          
C1       C      0.962900000000     0.583333333333     0.750000000000     0          
C2       C      0.982066666667     0.583333333333     0.750000000000     0          
C3       C      0.991033333333     0.572366666667     0.739033333333     0          
H1       H      0.985066666667     0.565033333333     0.731700000000     0          
Zn1      Zn     0.764466666667     0.597800000000     0.735533333333     0          
O2       O      0.760633333333     0.622000000000     0.739366666667     0          
C1       C      0.750000000000     0.629566666667     0.750000000000     0          
C2       C      0.750000000000     0.648733333333     0.750000000000     0          
C3       C      0.760966666667     0.657700000000     0.739033333333     0          
H1       H      0.768300000000     0.651733333333     0.731700000000     0          
Zn1      Zn     0.735533333333     0.568866666667     0.931133333333     0          
O2       O      0.711333333333     0.572700000000     0.927300000000     0          
C1       C      0.703766666667     0.583333333333     0.916666666667     0          
C2       C      0.684600000000     0.583333333333     0.916666666667     0          
C3       C      0.675633333333     0.572366666667     0.927633333333     0          
H1       H      0.681600000000     0.565033333333     0.934966666667     0          
Zn1      Zn     0.764466666667     0.402200000000     0.931133333333     0          
O2       O      0.760633333333     0.378000000000     0.927300000000     0          
C1       C      0.750000000000     0.370433333333     0.916666666667     0          
C2       C      0.750000000000     0.351266666667     0.916666666667     0          
C3       C      0.760966666667     0.342300000000     0.927633333333     0          
H1       H      0.768300000000     0.348266666667     0.934966666667     0          
Zn1      Zn     0.931133333333     0.431133333333     0.931133333333     0          
O2       O      0.955333333333     0.427300000000     0.927300000000     0          
C1       C      0.962900000000     0.416666666667     0.916666666667     0          
C2       C      0.982066666667     0.416666666667     0.916666666667     0          
C3       C      0.991033333333     0.427633333333     0.927633333333     0          
H1       H      0.985066666667     0.434966666667     0.934966666667     0          
Zn1      Zn     0.902200000000     0.597800000000     0.931133333333     0          
O2       O      0.906033333333     0.622000000000     0.927300000000     0          
C1       C      0.916666666667     0.629566666667     0.916666666667     0          
C2       C      0.916666666667     0.648733333333     0.916666666667     0          
C3       C      0.905700000000     0.657700000000     0.927633333333     0          
H1       H      0.898366666667     0.651733333333     0.934966666667     0          
Zn1      Zn     0.735533333333     0.402200000000     0.764466666667     0          
O2       O      0.739366666667     0.378000000000     0.760633333333     0          
C1       C      0.750000000000     0.370433333333     0.750000000000     0          
C2       C      0.750000000000     0.351266666667     0.750000000000     0          
C3       C      0.739033333333     0.342300000000     0.760966666667     0          
H1       H      0.731700000000     0.348266666667     0.768300000000     0          
Zn1      Zn     0.735533333333     0.597800000000     0.902200000000     0          
O2       O      0.739366666667     0.622000000000     0.906033333333     0          
C1       C      0.750000000000     0.629566666667     0.916666666667     0          
C2       C      0.750000000000     0.648733333333     0.916666666667     0          
C3       C      0.739033333333     0.657700000000     0.905700000000     0          
H1       H      0.731700000000     0.651733333333     0.898366666667     0          
Zn1      Zn     0.735533333333     0.402200000000     0.902200000000     0          
O2       O      0.711333333333     0.406033333333     0.906033333333     0          
C1       C      0.703766666667     0.416666666667     0.916666666667     0          
C2       C      0.684600000000     0.416666666667     0.916666666667     0          
C3       C      0.675633333333     0.405700000000     0.905700000000     0          
H1       H      0.681600000000     0.398366666667     0.898366666667     0          
Zn1      Zn     0.931133333333     0.402200000000     0.902200000000     0          
O2       O      0.927300000000     0.378000000000     0.906033333333     0          
C1       C      0.916666666667     0.370433333333     0.916666666667     0          
C2       C      0.916666666667     0.351266666667     0.916666666667     0          
C3       C      0.927633333333     0.342300000000     0.905700000000     0          
H1       H      0.934966666667     0.348266666667     0.898366666667     0          
Zn1      Zn     0.931133333333     0.597800000000     0.902200000000     0          
O2       O      0.955333333333     0.593966666667     0.906033333333     0          
C1       C      0.962900000000     0.583333333333     0.916666666667     0          
C2       C      0.982066666667     0.583333333333     0.916666666667     0          
C3       C      0.991033333333     0.594300000000     0.905700000000     0          
H1       H      0.985066666667     0.601633333333     0.898366666667     0          
Zn1      Zn     0.931133333333     0.597800000000     0.764466666667     0          
O2       O      0.927300000000     0.622000000000     0.760633333333     0          
C1       C      0.916666666667     0.629566666667     0.750000000000     0          
C2       C      0.916666666667     0.648733333333     0.750000000000     0          
C3       C      0.927633333333     0.657700000000     0.760966666667     0          
H1       H      0.934966666667     0.651733333333     0.768300000000     0          
Zn1      Zn     0.735533333333     0.597800000000     0.764466666667     0          
O2       O      0.711333333333     0.593966666667     0.760633333333     0          
C1       C      0.703766666667     0.583333333333     0.750000000000     0          
C2       C      0.684600000000     0.583333333333     0.750000000000     0          
C3       C      0.675633333333     0.594300000000     0.760966666667     0          
H1       H      0.681600000000     0.601633333333     0.768300000000     0          
Zn1      Zn     0.931133333333     0.402200000000     0.764466666667     0          
O2       O      0.955333333333     0.406033333333     0.760633333333     0          
C1       C      0.962900000000     0.416666666667     0.750000000000     0          
C2       C      0.982066666667     0.416666666667     0.750000000000     0          
C3       C      0.991033333333     0.405700000000     0.760966666667     0          
H1       H      0.985066666667     0.398366666667     0.768300000000     0          
O2       O      0.906033333333     0.593966666667     0.955333333333     0          
C3       C      0.905700000000     0.594300000000     0.991033333333     0          
H1       H      0.898366666667     0.601633333333     0.985066666667     0          
O2       O      0.739366666667     0.572700000000     0.955333333333     0          
C3       C      0.739033333333     0.572366666667     0.991033333333     0          
H1       H      0.731700000000     0.565033333333     0.985066666667     0          
O2       O      0.760633333333     0.406033333333     0.955333333333     0          
C3       C      0.760966666667     0.405700000000     0.991033333333     0          
H1       H      0.768300000000     0.398366666667     0.985066666667     0          
O2       O      0.927300000000     0.427300000000     0.955333333333     0          
C3       C      0.927633333333     0.427633333333     0.991033333333     0          
H1       H      0.934966666667     0.434966666667     0.985066666667     0          
O2       O      0.906033333333     0.406033333333     0.711333333333     0          
C3       C      0.905700000000     0.405700000000     0.675633333333     0          
H1       H      0.898366666667     0.398366666667     0.681600000000     0          
O2       O      0.927300000000     0.572700000000     0.711333333333     0          
C3       C      0.927633333333     0.572366666667     0.675633333333     0          
H1       H      0.934966666667     0.565033333333     0.681600000000     0          
O2       O      0.760633333333     0.593966666667     0.711333333333     0          
C3       C      0.760966666667     0.594300000000     0.675633333333     0          
H1       H      0.768300000000     0.601633333333     0.681600000000     0          
O2       O      0.739366666667     0.427300000000     0.711333333333     0          
C3       C      0.739033333333     0.427633333333     0.675633333333     0          
H1       H      0.731700000000     0.434966666667     0.681600000000     0          
O2       O      0.955333333333     0.572700000000     0.927300000000     0          
C3       C      0.991033333333     0.572366666667     0.927633333333     0          
H1       H      0.985066666667     0.565033333333     0.934966666667     0          
O2       O      0.760633333333     0.622000000000     0.927300000000     0          
C3       C      0.760966666667     0.657700000000     0.927633333333     0          
H1       H      0.768300000000     0.651733333333     0.934966666667     0          
O2       O      0.711333333333     0.427300000000     0.927300000000     0          
C3       C      0.675633333333     0.427633333333     0.927633333333     0          
H1       H      0.681600000000     0.434966666667     0.934966666667     0          
O2       O      0.906033333333     0.378000000000     0.927300000000     0          
C3       C      0.905700000000     0.342300000000     0.927633333333     0          
H1       H      0.898366666667     0.348266666667     0.934966666667     0          
O2       O      0.955333333333     0.427300000000     0.739366666667     0          
C3       C      0.991033333333     0.427633333333     0.739033333333     0          
H1       H      0.985066666667     0.434966666667     0.731700000000     0          
O2       O      0.906033333333     0.622000000000     0.739366666667     0          
C3       C      0.905700000000     0.657700000000     0.739033333333     0          
H1       H      0.898366666667     0.651733333333     0.731700000000     0          
O2       O      0.711333333333     0.572700000000     0.739366666667     0          
C3       C      0.675633333333     0.572366666667     0.739033333333     0          
H1       H      0.681600000000     0.565033333333     0.731700000000     0          
O2       O      0.760633333333     0.378000000000     0.739366666667     0          
C3       C      0.760966666667     0.342300000000     0.739033333333     0          
H1       H      0.768300000000     0.348266666667     0.731700000000     0          
O2       O      0.927300000000     0.622000000000     0.906033333333     0          
C3       C      0.927633333333     0.657700000000     0.905700000000     0          
H1       H      0.934966666667     0.651733333333     0.898366666667     0          
O2       O      0.927300000000     0.378000000000     0.760633333333     0          
C3       C      0.927633333333     0.342300000000     0.760966666667     0          
H1       H      0.934966666667     0.348266666667     0.768300000000     0          
O2       O      0.955333333333     0.593966666667     0.760633333333     0          
C3       C      0.991033333333     0.594300000000     0.760966666667     0          
H1       H      0.985066666667     0.601633333333     0.768300000000     0          
O2       O      0.739366666667     0.622000000000     0.760633333333     0          
C3       C      0.739033333333     0.657700000000     0.760966666667     0          
H1       H      0.731700000000     0.651733333333     0.768300000000     0          
O2       O      0.711333333333     0.406033333333     0.760633333333     0          
C3       C      0.675633333333     0.405700000000     0.760966666667     0          
H1       H      0.681600000000     0.398366666667     0.768300000000     0          
O2       O      0.739366666667     0.378000000000     0.906033333333     0          
C3       C      0.739033333333     0.342300000000     0.905700000000     0          
H1       H      0.731700000000     0.348266666667     0.898366666667     0          
O2       O      0.955333333333     0.406033333333     0.906033333333     0          
C3       C      0.991033333333     0.405700000000     0.905700000000     0          
H1       H      0.985066666667     0.398366666667     0.898366666667     0          
O2       O      0.711333333333     0.593966666667     0.906033333333     0          
C3       C      0.675633333333     0.594300000000     0.905700000000     0          
H1       H      0.681600000000     0.601633333333     0.898366666667     0          
Zn1      Zn     0.764466666667     0.568866666667     0.902200000000     0          
O2       O      0.760633333333     0.572700000000     0.878000000000     0          
C1       C      0.750000000000     0.583333333333     0.870433333333     0          
C2       C      0.750000000000     0.583333333333     0.851266666667     0          
C3       C      0.760966666667     0.572366666667     0.842300000000     0          
H1       H      0.768300000000     0.565033333333     0.848266666667     0          
O2       O      0.927300000000     0.593966666667     0.878000000000     0          
C1       C      0.916666666667     0.583333333333     0.870433333333     0          
C2       C      0.916666666667     0.583333333333     0.851266666667     0          
C3       C      0.927633333333     0.594300000000     0.842300000000     0          
H1       H      0.934966666667     0.601633333333     0.848266666667     0          
Zn1      Zn     0.902200000000     0.431133333333     0.902200000000     0          
O2       O      0.906033333333     0.427300000000     0.878000000000     0          
C1       C      0.916666666667     0.416666666667     0.870433333333     0          
C2       C      0.916666666667     0.416666666667     0.851266666667     0          
C3       C      0.905700000000     0.427633333333     0.842300000000     0          
H1       H      0.898366666667     0.434966666667     0.848266666667     0          
O2       O      0.739366666667     0.406033333333     0.878000000000     0          
C1       C      0.750000000000     0.416666666667     0.870433333333     0          
C2       C      0.750000000000     0.416666666667     0.851266666667     0          
C3       C      0.739033333333     0.405700000000     0.842300000000     0          
H1       H      0.731700000000     0.398366666667     0.848266666667     0          
Zn1      Zn     0.764466666667     0.431133333333     0.764466666667     0          
O2       O      0.760633333333     0.427300000000     0.788666666667     0          
C1       C      0.750000000000     0.416666666667     0.796233333333     0          
C2       C      0.750000000000     0.416666666667     0.815400000000     0          
C3       C      0.760966666667     0.427633333333     0.824366666667     0          
H1       H      0.768300000000     0.434966666667     0.818400000000     0          
O2       O      0.739366666667     0.593966666667     0.788666666667     0          
C1       C      0.750000000000     0.583333333333     0.796233333333     0          
C2       C      0.750000000000     0.583333333333     0.815400000000     0          
C3       C      0.739033333333     0.594300000000     0.824366666667     0          
H1       H      0.731700000000     0.601633333333     0.818400000000     0          
Zn1      Zn     0.902200000000     0.568866666667     0.764466666667     0          
O2       O      0.906033333333     0.572700000000     0.788666666667     0          
C1       C      0.916666666667     0.583333333333     0.796233333333     0          
C2       C      0.916666666667     0.583333333333     0.815400000000     0          
C3       C      0.905700000000     0.572366666667     0.824366666667     0          
H1       H      0.898366666667     0.565033333333     0.818400000000     0          
O2       O      0.927300000000     0.406033333333     0.788666666667     0          
C1       C      0.916666666667     0.416666666667     0.796233333333     0          
C2       C      0.916666666667     0.416666666667     0.815400000000     0          
C3       C      0.927633333333     0.405700000000     0.824366666667     0          
H1       H      0.934966666667     0.398366666667     0.818400000000     0          
Zn1      Zn     0.902200000000     0.568866666667     0.902200000000     0          
O2       O      0.906033333333     0.544666666667     0.906033333333     0          
C1       C      0.916666666667     0.537100000000     0.916666666667     0          
C2       C      0.916666666667     0.517933333333     0.916666666667     0          
C3       C      0.905700000000     0.508966666667     0.905700000000     0          
H1       H      0.898366666667     0.514933333333     0.898366666667     0          
Zn1      Zn     0.764466666667     0.431133333333     0.902200000000     0          
O2       O      0.760633333333     0.455333333333     0.906033333333     0          
C1       C      0.750000000000     0.462900000000     0.916666666667     0          
C2       C      0.750000000000     0.482066666667     0.916666666667     0          
C3       C      0.760966666667     0.491033333333     0.905700000000     0          
H1       H      0.768300000000     0.485066666667     0.898366666667     0          
Zn1      Zn     0.764466666667     0.568866666667     0.764466666667     0          
O2       O      0.760633333333     0.544666666667     0.760633333333     0          
C1       C      0.750000000000     0.537100000000     0.750000000000     0          
C2       C      0.750000000000     0.517933333333     0.750000000000     0          
C3       C      0.760966666667     0.508966666667     0.760966666667     0          
H1       H      0.768300000000     0.514933333333     0.768300000000     0          
Zn1      Zn     0.902200000000     0.431133333333     0.764466666667     0          
O2       O      0.906033333333     0.455333333333     0.760633333333     0          
C1       C      0.916666666667     0.462900000000     0.750000000000     0          
C2       C      0.916666666667     0.482066666667     0.750000000000     0          
C3       C      0.905700000000     0.491033333333     0.760966666667     0          
H1       H      0.898366666667     0.485066666667     0.768300000000     0          
O2       O      0.739366666667     0.544666666667     0.927300000000     0          
C1       C      0.750000000000     0.537100000000     0.916666666667     0          
C2       C      0.750000000000     0.517933333333     0.916666666667     0          
C3       C      0.739033333333     0.508966666667     0.927633333333     0          
H1       H      0.731700000000     0.514933333333     0.934966666667     0          
O2       O      0.739366666667     0.455333333333     0.739366666667     0          
C1       C      0.750000000000     0.462900000000     0.750000000000     0          
C2       C      0.750000000000     0.482066666667     0.750000000000     0          
C3       C      0.739033333333     0.491033333333     0.739033333333     0          
H1       H      0.731700000000     0.485066666667     0.731700000000     0          
O2       O      0.927300000000     0.544666666667     0.739366666667     0          
C1       C      0.916666666667     0.537100000000     0.750000000000     0          
C2       C      0.916666666667     0.517933333333     0.750000000000     0          
C3       C      0.927633333333     0.508966666667     0.739033333333     0          
H1       H      0.934966666667     0.514933333333     0.731700000000     0          
O2       O      0.927300000000     0.455333333333     0.927300000000     0          
C1       C      0.916666666667     0.462900000000     0.916666666667     0          
C2       C      0.916666666667     0.482066666667     0.916666666667     0          
C3       C      0.927633333333     0.491033333333     0.927633333333     0          
H1       H      0.934966666667     0.485066666667     0.934966666667     0          
O2       O      0.906033333333     0.427300000000     0.788666666667     0          
C3       C      0.905700000000     0.427633333333     0.824366666667     0          
H1       H      0.898366666667     0.434966666667     0.818400000000     0          
O2       O      0.739366666667     0.406033333333     0.788666666667     0          
C3       C      0.739033333333     0.405700000000     0.824366666667     0          
H1       H      0.731700000000     0.398366666667     0.818400000000     0          
O2       O      0.760633333333     0.572700000000     0.788666666667     0          
C3       C      0.760966666667     0.572366666667     0.824366666667     0          
H1       H      0.768300000000     0.565033333333     0.818400000000     0          
O2       O      0.927300000000     0.593966666667     0.788666666667     0          
C3       C      0.927633333333     0.594300000000     0.824366666667     0          
H1       H      0.934966666667     0.601633333333     0.818400000000     0          
O2       O      0.906033333333     0.572700000000     0.878000000000     0          
C3       C      0.905700000000     0.572366666667     0.842300000000     0          
H1       H      0.898366666667     0.565033333333     0.848266666667     0          
O2       O      0.927300000000     0.406033333333     0.878000000000     0          
C3       C      0.927633333333     0.405700000000     0.842300000000     0          
H1       H      0.934966666667     0.398366666667     0.848266666667     0          
O2       O      0.760633333333     0.427300000000     0.878000000000     0          
C3       C      0.760966666667     0.427633333333     0.842300000000     0          
H1       H      0.768300000000     0.434966666667     0.848266666667     0          
O2       O      0.739366666667     0.593966666667     0.878000000000     0          
C3       C      0.739033333333     0.594300000000     0.842300000000     0          
H1       H      0.731700000000     0.601633333333     0.848266666667     0          
O2       O      0.760633333333     0.455333333333     0.760633333333     0          
C3       C      0.760966666667     0.491033333333     0.760966666667     0          
H1       H      0.768300000000     0.485066666667     0.768300000000     0          
O2       O      0.906033333333     0.544666666667     0.760633333333     0          
C3       C      0.905700000000     0.508966666667     0.760966666667     0          
H1       H      0.898366666667     0.514933333333     0.768300000000     0          
O2       O      0.906033333333     0.455333333333     0.906033333333     0          
C3       C      0.905700000000     0.491033333333     0.905700000000     0          
H1       H      0.898366666667     0.485066666667     0.898366666667     0          
O2       O      0.760633333333     0.544666666667     0.906033333333     0          
C3       C      0.760966666667     0.508966666667     0.905700000000     0          
H1       H      0.768300000000     0.514933333333     0.898366666667     0          
O2       O      0.927300000000     0.455333333333     0.739366666667     0          
C3       C      0.927633333333     0.491033333333     0.739033333333     0          
H1       H      0.934966666667     0.485066666667     0.731700000000     0          
O2       O      0.927300000000     0.544666666667     0.927300000000     0          
C3       C      0.927633333333     0.508966666667     0.927633333333     0          
H1       H      0.934966666667     0.514933333333     0.934966666667     0          
O2       O      0.739366666667     0.455333333333     0.927300000000     0          
C3       C      0.739033333333     0.491033333333     0.927633333333     0          
H1       H      0.731700000000     0.485066666667     0.934966666667     0          
O2       O      0.739366666667     0.544666666667     0.739366666667     0          
C3       C      0.739033333333     0.508966666667     0.739033333333     0          
H1       H      0.731700000000     0.514933333333     0.731700000000     0          
O2       O      0.878000000000     0.427300000000     0.906033333333     0          
C1       C      0.870433333333     0.416666666667     0.916666666667     0          
C2       C      0.851266666667     0.416666666667     0.916666666667     0          
C3       C      0.842300000000     0.427633333333     0.905700000000     0          
H1       H      0.848266666667     0.434966666667     0.898366666667     0          
O2       O      0.788666666667     0.572700000000     0.906033333333     0          
C1       C      0.796233333333     0.583333333333     0.916666666667     0          
C2       C      0.815400000000     0.583333333333     0.916666666667     0          
C3       C      0.824366666667     0.572366666667     0.905700000000     0          
H1       H      0.818400000000     0.565033333333     0.898366666667     0          
O2       O      0.878000000000     0.572700000000     0.760633333333     0          
C1       C      0.870433333333     0.583333333333     0.750000000000     0          
C2       C      0.851266666667     0.583333333333     0.750000000000     0          
C3       C      0.842300000000     0.572366666667     0.760966666667     0          
H1       H      0.848266666667     0.565033333333     0.768300000000     0          
O2       O      0.788666666667     0.427300000000     0.760633333333     0          
C1       C      0.796233333333     0.416666666667     0.750000000000     0          
C2       C      0.815400000000     0.416666666667     0.750000000000     0          
C3       C      0.824366666667     0.427633333333     0.760966666667     0          
H1       H      0.818400000000     0.434966666667     0.768300000000     0          
O2       O      0.878000000000     0.406033333333     0.739366666667     0          
C1       C      0.870433333333     0.416666666667     0.750000000000     0          
C2       C      0.851266666667     0.416666666667     0.750000000000     0          
C3       C      0.842300000000     0.405700000000     0.739033333333     0          
H1       H      0.848266666667     0.398366666667     0.731700000000     0          
O2       O      0.788666666667     0.593966666667     0.739366666667     0          
C1       C      0.796233333333     0.583333333333     0.750000000000     0          
C2       C      0.815400000000     0.583333333333     0.750000000000     0          
C3       C      0.824366666667     0.594300000000     0.739033333333     0          
H1       H      0.818400000000     0.601633333333     0.731700000000     0          
O2       O      0.878000000000     0.593966666667     0.927300000000     0          
C1       C      0.870433333333     0.583333333333     0.916666666667     0          
C2       C      0.851266666667     0.583333333333     0.916666666667     0          
C3       C      0.842300000000     0.594300000000     0.927633333333     0          
H1       H      0.848266666667     0.601633333333     0.934966666667     0          
O2       O      0.788666666667     0.406033333333     0.927300000000     0          
C1       C      0.796233333333     0.416666666667     0.916666666667     0          
C2       C      0.815400000000     0.416666666667     0.916666666667     0          
C3       C      0.824366666667     0.405700000000     0.927633333333     0          
H1       H      0.818400000000     0.398366666667     0.934966666667     0          
O2       O      0.788666666667     0.572700000000     0.760633333333     0          
C3       C      0.824366666667     0.572366666667     0.760966666667     0          
H1       H      0.818400000000     0.565033333333     0.768300000000     0          
O2       O      0.878000000000     0.427300000000     0.760633333333     0          
C3       C      0.842300000000     0.427633333333     0.760966666667     0          
H1       H      0.848266666667     0.434966666667     0.768300000000     0          
O2       O      0.788666666667     0.427300000000     0.906033333333     0          
C3       C      0.824366666667     0.427633333333     0.905700000000     0          
H1       H      0.818400000000     0.434966666667     0.898366666667     0          
O2       O      0.878000000000     0.572700000000     0.906033333333     0          
C3       C      0.842300000000     0.572366666667     0.905700000000     0          
H1       H      0.848266666667     0.565033333333     0.898366666667     0          
O2       O      0.788666666667     0.593966666667     0.927300000000     0          
C3       C      0.824366666667     0.594300000000     0.927633333333     0          
H1       H      0.818400000000     0.601633333333     0.934966666667     0          
O2       O      0.878000000000     0.406033333333     0.927300000000     0          
C3       C      0.842300000000     0.405700000000     0.927633333333     0          
H1       H      0.848266666667     0.398366666667     0.934966666667     0          
O2       O      0.788666666667     0.406033333333     0.739366666667     0          
C3       C      0.824366666667     0.405700000000     0.739033333333     0          
H1       H      0.818400000000     0.398366666667     0.731700000000     0          
O2       O      0.878000000000     0.593966666667     0.739366666667     0          
C3       C      0.842300000000     0.594300000000     0.739033333333     0          
H1       H      0.848266666667     0.601633333333     0.731700000000     0          
Zn1      Zn     0.764466666667     0.735533333333     0.068866666667     0          
O1       O      0.750000000000     0.750000000000     0.083333333333     0          
O2       O      0.760633333333     0.739366666667     0.044666666667     0          
C1       C      0.750000000000     0.750000000000     0.037100000000     0          
C2       C      0.750000000000     0.750000000000     0.017933333333     0          
C3       C      0.760966666667     0.739033333333     0.008966666667     0          
H1       H      0.768300000000     0.731700000000     0.014933333333     0          
Zn1      Zn     0.931133333333     0.764466666667     0.068866666667     0          
O1       O      0.916666666667     0.750000000000     0.083333333333     0          
O2       O      0.927300000000     0.760633333333     0.044666666667     0          
C1       C      0.916666666667     0.750000000000     0.037100000000     0          
C2       C      0.916666666667     0.750000000000     0.017933333333     0          
C3       C      0.927633333333     0.760966666667     0.008966666667     0          
H1       H      0.934966666667     0.768300000000     0.014933333333     0          
Zn1      Zn     0.902200000000     0.931133333333     0.068866666667     0          
O1       O      0.916666666667     0.916666666667     0.083333333333     0          
O2       O      0.906033333333     0.927300000000     0.044666666667     0          
C1       C      0.916666666667     0.916666666667     0.037100000000     0          
C2       C      0.916666666667     0.916666666667     0.017933333333     0          
C3       C      0.905700000000     0.927633333333     0.008966666667     0          
H1       H      0.898366666667     0.934966666667     0.014933333333     0          
Zn1      Zn     0.735533333333     0.902200000000     0.068866666667     0          
O1       O      0.750000000000     0.916666666667     0.083333333333     0          
O2       O      0.739366666667     0.906033333333     0.044666666667     0          
C1       C      0.750000000000     0.916666666667     0.037100000000     0          
C2       C      0.750000000000     0.916666666667     0.017933333333     0          
C3       C      0.739033333333     0.905700000000     0.008966666667     0          
H1       H      0.731700000000     0.898366666667     0.014933333333     0          
Zn1      Zn     0.764466666667     0.931133333333     0.264466666667     0          
O1       O      0.750000000000     0.916666666667     0.250000000000     0          
O2       O      0.760633333333     0.927300000000     0.288666666667     0          
C1       C      0.750000000000     0.916666666667     0.296233333333     0          
C2       C      0.750000000000     0.916666666667     0.315400000000     0          
C3       C      0.760966666667     0.927633333333     0.324366666667     0          
H1       H      0.768300000000     0.934966666667     0.318400000000     0          
Zn1      Zn     0.735533333333     0.764466666667     0.264466666667     0          
O1       O      0.750000000000     0.750000000000     0.250000000000     0          
O2       O      0.739366666667     0.760633333333     0.288666666667     0          
C1       C      0.750000000000     0.750000000000     0.296233333333     0          
C2       C      0.750000000000     0.750000000000     0.315400000000     0          
C3       C      0.739033333333     0.760966666667     0.324366666667     0          
H1       H      0.731700000000     0.768300000000     0.318400000000     0          
Zn1      Zn     0.902200000000     0.735533333333     0.264466666667     0          
O1       O      0.916666666667     0.750000000000     0.250000000000     0          
O2       O      0.906033333333     0.739366666667     0.288666666667     0          
C1       C      0.916666666667     0.750000000000     0.296233333333     0          
C2       C      0.916666666667     0.750000000000     0.315400000000     0          
C3       C      0.905700000000     0.739033333333     0.324366666667     0          
H1       H      0.898366666667     0.731700000000     0.318400000000     0          
Zn1      Zn     0.931133333333     0.902200000000     0.264466666667     0          
O1       O      0.916666666667     0.916666666667     0.250000000000     0          
O2       O      0.927300000000     0.906033333333     0.288666666667     0          
C1       C      0.916666666667     0.916666666667     0.296233333333     0          
C2       C      0.916666666667     0.916666666667     0.315400000000     0          
C3       C      0.927633333333     0.905700000000     0.324366666667     0          
H1       H      0.934966666667     0.898366666667     0.318400000000     0          
Zn1      Zn     0.735533333333     0.764466666667     0.068866666667     0          
O2       O      0.711333333333     0.760633333333     0.072700000000     0          
C1       C      0.703766666667     0.750000000000     0.083333333333     0          
C2       C      0.684600000000     0.750000000000     0.083333333333     0          
C3       C      0.675633333333     0.760966666667     0.072366666667     0          
H1       H      0.681600000000     0.768300000000     0.065033333333     0          
Zn1      Zn     0.902200000000     0.735533333333     0.068866666667     0          
O2       O      0.906033333333     0.711333333333     0.072700000000     0          
C1       C      0.916666666667     0.703766666667     0.083333333333     0          
C2       C      0.916666666667     0.684600000000     0.083333333333     0          
C3       C      0.905700000000     0.675633333333     0.072366666667     0          
H1       H      0.898366666667     0.681600000000     0.065033333333     0          
Zn1      Zn     0.931133333333     0.902200000000     0.068866666667     0          
O2       O      0.955333333333     0.906033333333     0.072700000000     0          
C1       C      0.962900000000     0.916666666667     0.083333333333     0          
C2       C      0.982066666667     0.916666666667     0.083333333333     0          
C3       C      0.991033333333     0.905700000000     0.072366666667     0          
H1       H      0.985066666667     0.898366666667     0.065033333333     0          
Zn1      Zn     0.764466666667     0.931133333333     0.068866666667     0          
O2       O      0.760633333333     0.955333333333     0.072700000000     0          
C1       C      0.750000000000     0.962900000000     0.083333333333     0          
C2       C      0.750000000000     0.982066666667     0.083333333333     0          
C3       C      0.760966666667     0.991033333333     0.072366666667     0          
H1       H      0.768300000000     0.985066666667     0.065033333333     0          
Zn1      Zn     0.735533333333     0.902200000000     0.264466666667     0          
O2       O      0.711333333333     0.906033333333     0.260633333333     0          
C1       C      0.703766666667     0.916666666667     0.250000000000     0          
C2       C      0.684600000000     0.916666666667     0.250000000000     0          
C3       C      0.675633333333     0.905700000000     0.260966666667     0          
H1       H      0.681600000000     0.898366666667     0.268300000000     0          
Zn1      Zn     0.764466666667     0.735533333333     0.264466666667     0          
O2       O      0.760633333333     0.711333333333     0.260633333333     0          
C1       C      0.750000000000     0.703766666667     0.250000000000     0          
C2       C      0.750000000000     0.684600000000     0.250000000000     0          
C3       C      0.760966666667     0.675633333333     0.260966666667     0          
H1       H      0.768300000000     0.681600000000     0.268300000000     0          
Zn1      Zn     0.931133333333     0.764466666667     0.264466666667     0          
O2       O      0.955333333333     0.760633333333     0.260633333333     0          
C1       C      0.962900000000     0.750000000000     0.250000000000     0          
C2       C      0.982066666667     0.750000000000     0.250000000000     0          
C3       C      0.991033333333     0.760966666667     0.260966666667     0          
H1       H      0.985066666667     0.768300000000     0.268300000000     0          
Zn1      Zn     0.902200000000     0.931133333333     0.264466666667     0          
O2       O      0.906033333333     0.955333333333     0.260633333333     0          
C1       C      0.916666666667     0.962900000000     0.250000000000     0          
C2       C      0.916666666667     0.982066666667     0.250000000000     0          
C3       C      0.905700000000     0.991033333333     0.260966666667     0          
H1       H      0.898366666667     0.985066666667     0.268300000000     0          
Zn1      Zn     0.735533333333     0.735533333333     0.097800000000     0          
O2       O      0.739366666667     0.711333333333     0.093966666667     0          
C1       C      0.750000000000     0.703766666667     0.083333333333     0          
C2       C      0.750000000000     0.684600000000     0.083333333333     0          
C3       C      0.739033333333     0.675633333333     0.094300000000     0          
H1       H      0.731700000000     0.681600000000     0.101633333333     0          
Zn1      Zn     0.735533333333     0.931133333333     0.235533333333     0          
O2       O      0.739366666667     0.955333333333     0.239366666667     0          
C1       C      0.750000000000     0.962900000000     0.250000000000     0          
C2       C      0.750000000000     0.982066666667     0.250000000000     0          
C3       C      0.739033333333     0.991033333333     0.239033333333     0          
H1       H      0.731700000000     0.985066666667     0.231700000000     0          
Zn1      Zn     0.735533333333     0.735533333333     0.235533333333     0          
O2       O      0.711333333333     0.739366666667     0.239366666667     0          
C1       C      0.703766666667     0.750000000000     0.250000000000     0          
C2       C      0.684600000000     0.750000000000     0.250000000000     0          
C3       C      0.675633333333     0.739033333333     0.239033333333     0          
H1       H      0.681600000000     0.731700000000     0.231700000000     0          
Zn1      Zn     0.931133333333     0.735533333333     0.235533333333     0          
O2       O      0.927300000000     0.711333333333     0.239366666667     0          
C1       C      0.916666666667     0.703766666667     0.250000000000     0          
C2       C      0.916666666667     0.684600000000     0.250000000000     0          
C3       C      0.927633333333     0.675633333333     0.239033333333     0          
H1       H      0.934966666667     0.681600000000     0.231700000000     0          
Zn1      Zn     0.931133333333     0.931133333333     0.235533333333     0          
O2       O      0.955333333333     0.927300000000     0.239366666667     0          
C1       C      0.962900000000     0.916666666667     0.250000000000     0          
C2       C      0.982066666667     0.916666666667     0.250000000000     0          
C3       C      0.991033333333     0.927633333333     0.239033333333     0          
H1       H      0.985066666667     0.934966666667     0.231700000000     0          
Zn1      Zn     0.931133333333     0.931133333333     0.097800000000     0          
O2       O      0.927300000000     0.955333333333     0.093966666667     0          
C1       C      0.916666666667     0.962900000000     0.083333333333     0          
C2       C      0.916666666667     0.982066666667     0.083333333333     0          
C3       C      0.927633333333     0.991033333333     0.094300000000     0          
H1       H      0.934966666667     0.985066666667     0.101633333333     0          
Zn1      Zn     0.735533333333     0.931133333333     0.097800000000     0          
O2       O      0.711333333333     0.927300000000     0.093966666667     0          
C1       C      0.703766666667     0.916666666667     0.083333333333     0          
C2       C      0.684600000000     0.916666666667     0.083333333333     0          
C3       C      0.675633333333     0.927633333333     0.094300000000     0          
H1       H      0.681600000000     0.934966666667     0.101633333333     0          
Zn1      Zn     0.931133333333     0.735533333333     0.097800000000     0          
O2       O      0.955333333333     0.739366666667     0.093966666667     0          
C1       C      0.962900000000     0.750000000000     0.083333333333     0          
C2       C      0.982066666667     0.750000000000     0.083333333333     0          
C3       C      0.991033333333     0.739033333333     0.094300000000     0          
H1       H      0.985066666667     0.731700000000     0.101633333333     0          
O2       O      0.906033333333     0.927300000000     0.288666666667     0          
C3       C      0.905700000000     0.927633333333     0.324366666667     0          
H1       H      0.898366666667     0.934966666667     0.318400000000     0          
O2       O      0.739366666667     0.906033333333     0.288666666667     0          
C3       C      0.739033333333     0.905700000000     0.324366666667     0          
H1       H      0.731700000000     0.898366666667     0.318400000000     0          
O2       O      0.760633333333     0.739366666667     0.288666666667     0          
C3       C      0.760966666667     0.739033333333     0.324366666667     0          
H1       H      0.768300000000     0.731700000000     0.318400000000     0          
O2       O      0.927300000000     0.760633333333     0.288666666667     0          
C3       C      0.927633333333     0.760966666667     0.324366666667     0          
H1       H      0.934966666667     0.768300000000     0.318400000000     0          
O2       O      0.906033333333     0.739366666667     0.044666666667     0          
C3       C      0.905700000000     0.739033333333     0.008966666667     0          
H1       H      0.898366666667     0.731700000000     0.014933333333     0          
O2       O      0.927300000000     0.906033333333     0.044666666667     0          
C3       C      0.927633333333     0.905700000000     0.008966666667     0          
H1       H      0.934966666667     0.898366666667     0.014933333333     0          
O2       O      0.760633333333     0.927300000000     0.044666666667     0          
C3       C      0.760966666667     0.927633333333     0.008966666667     0          
H1       H      0.768300000000     0.934966666667     0.014933333333     0          
O2       O      0.739366666667     0.760633333333     0.044666666667     0          
C3       C      0.739033333333     0.760966666667     0.008966666667     0          
H1       H      0.731700000000     0.768300000000     0.014933333333     0          
O2       O      0.955333333333     0.906033333333     0.260633333333     0          
C3       C      0.991033333333     0.905700000000     0.260966666667     0          
H1       H      0.985066666667     0.898366666667     0.268300000000     0          
O2       O      0.760633333333     0.955333333333     0.260633333333     0          
C3       C      0.760966666667     0.991033333333     0.260966666667     0          
H1       H      0.768300000000     0.985066666667     0.268300000000     0          
O2       O      0.711333333333     0.760633333333     0.260633333333     0          
C3       C      0.675633333333     0.760966666667     0.260966666667     0          
H1       H      0.681600000000     0.768300000000     0.268300000000     0          
O2       O      0.906033333333     0.711333333333     0.260633333333     0          
C3       C      0.905700000000     0.675633333333     0.260966666667     0          
H1       H      0.898366666667     0.681600000000     0.268300000000     0          
O2       O      0.955333333333     0.760633333333     0.072700000000     0          
C3       C      0.991033333333     0.760966666667     0.072366666667     0          
H1       H      0.985066666667     0.768300000000     0.065033333333     0          
O2       O      0.906033333333     0.955333333333     0.072700000000     0          
C3       C      0.905700000000     0.991033333333     0.072366666667     0          
H1       H      0.898366666667     0.985066666667     0.065033333333     0          
O2       O      0.711333333333     0.906033333333     0.072700000000     0          
C3       C      0.675633333333     0.905700000000     0.072366666667     0          
H1       H      0.681600000000     0.898366666667     0.065033333333     0          
O2       O      0.760633333333     0.711333333333     0.072700000000     0          
C3       C      0.760966666667     0.675633333333     0.072366666667     0          
H1       H      0.768300000000     0.681600000000     0.065033333333     0          
O2       O      0.927300000000     0.955333333333     0.239366666667     0          
C3       C      0.927633333333     0.991033333333     0.239033333333     0          
H1       H      0.934966666667     0.985066666667     0.231700000000     0          
O2       O      0.927300000000     0.711333333333     0.093966666667     0          
C3       C      0.927633333333     0.675633333333     0.094300000000     0          
H1       H      0.934966666667     0.681600000000     0.101633333333     0          
O2       O      0.955333333333     0.927300000000     0.093966666667     0          
C3       C      0.991033333333     0.927633333333     0.094300000000     0          
H1       H      0.985066666667     0.934966666667     0.101633333333     0          
O2       O      0.739366666667     0.955333333333     0.093966666667     0          
C3       C      0.739033333333     0.991033333333     0.094300000000     0          
H1       H      0.731700000000     0.985066666667     0.101633333333     0          
O2       O      0.711333333333     0.739366666667     0.093966666667     0          
C3       C      0.675633333333     0.739033333333     0.094300000000     0          
H1       H      0.681600000000     0.731700000000     0.101633333333     0          
O2       O      0.739366666667     0.711333333333     0.239366666667     0          
C3       C      0.739033333333     0.675633333333     0.239033333333     0          
H1       H      0.731700000000     0.681600000000     0.231700000000     0          
O2       O      0.955333333333     0.739366666667     0.239366666667     0          
C3       C      0.991033333333     0.739033333333     0.239033333333     0          
H1       H      0.985066666667     0.731700000000     0.231700000000     0          
O2       O      0.711333333333     0.927300000000     0.239366666667     0          
C3       C      0.675633333333     0.927633333333     0.239033333333     0          
H1       H      0.681600000000     0.934966666667     0.231700000000     0          
Zn1      Zn     0.764466666667     0.902200000000     0.235533333333     0          
O2       O      0.760633333333     0.906033333333     0.211333333333     0          
C1       C      0.750000000000     0.916666666667     0.203766666667     0          
C2       C      0.750000000000     0.916666666667     0.184600000000     0          
C3       C      0.760966666667     0.905700000000     0.175633333333     0          
H1       H      0.768300000000     0.898366666667     0.181600000000     0          
O2       O      0.927300000000     0.927300000000     0.211333333333     0          
C1       C      0.916666666667     0.916666666667     0.203766666667     0          
C2       C      0.916666666667     0.916666666667     0.184600000000     0          
C3       C      0.927633333333     0.927633333333     0.175633333333     0          
H1       H      0.934966666667     0.934966666667     0.181600000000     0          
Zn1      Zn     0.902200000000     0.764466666667     0.235533333333     0          
O2       O      0.906033333333     0.760633333333     0.211333333333     0          
C1       C      0.916666666667     0.750000000000     0.203766666667     0          
C2       C      0.916666666667     0.750000000000     0.184600000000     0          
C3       C      0.905700000000     0.760966666667     0.175633333333     0          
H1       H      0.898366666667     0.768300000000     0.181600000000     0          
O2       O      0.739366666667     0.739366666667     0.211333333333     0          
C1       C      0.750000000000     0.750000000000     0.203766666667     0          
C2       C      0.750000000000     0.750000000000     0.184600000000     0          
C3       C      0.739033333333     0.739033333333     0.175633333333     0          
H1       H      0.731700000000     0.731700000000     0.181600000000     0          
Zn1      Zn     0.764466666667     0.764466666667     0.097800000000     0          
O2       O      0.760633333333     0.760633333333     0.122000000000     0          
C1       C      0.750000000000     0.750000000000     0.129566666667     0          
C2       C      0.750000000000     0.750000000000     0.148733333333     0          
C3       C      0.760966666667     0.760966666667     0.157700000000     0          
H1       H      0.768300000000     0.768300000000     0.151733333333     0          
O2       O      0.739366666667     0.927300000000     0.122000000000     0          
C1       C      0.750000000000     0.916666666667     0.129566666667     0          
C2       C      0.750000000000     0.916666666667     0.148733333333     0          
C3       C      0.739033333333     0.927633333333     0.157700000000     0          
H1       H      0.731700000000     0.934966666667     0.151733333333     0          
Zn1      Zn     0.902200000000     0.902200000000     0.097800000000     0          
O2       O      0.906033333333     0.906033333333     0.122000000000     0          
C1       C      0.916666666667     0.916666666667     0.129566666667     0          
C2       C      0.916666666667     0.916666666667     0.148733333333     0          
C3       C      0.905700000000     0.905700000000     0.157700000000     0          
H1       H      0.898366666667     0.898366666667     0.151733333333     0          
O2       O      0.927300000000     0.739366666667     0.122000000000     0          
C1       C      0.916666666667     0.750000000000     0.129566666667     0          
C2       C      0.916666666667     0.750000000000     0.148733333333     0          
C3       C      0.927633333333     0.739033333333     0.157700000000     0          
H1       H      0.934966666667     0.731700000000     0.151733333333     0          
Zn1      Zn     0.902200000000     0.902200000000     0.235533333333     0          
O2       O      0.906033333333     0.878000000000     0.239366666667     0          
C1       C      0.916666666667     0.870433333333     0.250000000000     0          
C2       C      0.916666666667     0.851266666667     0.250000000000     0          
C3       C      0.905700000000     0.842300000000     0.239033333333     0          
H1       H      0.898366666667     0.848266666667     0.231700000000     0          
Zn1      Zn     0.764466666667     0.764466666667     0.235533333333     0          
O2       O      0.760633333333     0.788666666667     0.239366666667     0          
C1       C      0.750000000000     0.796233333333     0.250000000000     0          
C2       C      0.750000000000     0.815400000000     0.250000000000     0          
C3       C      0.760966666667     0.824366666667     0.239033333333     0          
H1       H      0.768300000000     0.818400000000     0.231700000000     0          
Zn1      Zn     0.764466666667     0.902200000000     0.097800000000     0          
O2       O      0.760633333333     0.878000000000     0.093966666667     0          
C1       C      0.750000000000     0.870433333333     0.083333333333     0          
C2       C      0.750000000000     0.851266666667     0.083333333333     0          
C3       C      0.760966666667     0.842300000000     0.094300000000     0          
H1       H      0.768300000000     0.848266666667     0.101633333333     0          
Zn1      Zn     0.902200000000     0.764466666667     0.097800000000     0          
O2       O      0.906033333333     0.788666666667     0.093966666667     0          
C1       C      0.916666666667     0.796233333333     0.083333333333     0          
C2       C      0.916666666667     0.815400000000     0.083333333333     0          
C3       C      0.905700000000     0.824366666667     0.094300000000     0          
H1       H      0.898366666667     0.818400000000     0.101633333333     0          
O2       O      0.739366666667     0.878000000000     0.260633333333     0          
C1       C      0.750000000000     0.870433333333     0.250000000000     0          
C2       C      0.750000000000     0.851266666667     0.250000000000     0          
C3       C      0.739033333333     0.842300000000     0.260966666667     0          
H1       H      0.731700000000     0.848266666667     0.268300000000     0          
O2       O      0.739366666667     0.788666666667     0.072700000000     0          
C1       C      0.750000000000     0.796233333333     0.083333333333     0          
C2       C      0.750000000000     0.815400000000     0.083333333333     0          
C3       C      0.739033333333     0.824366666667     0.072366666667     0          
H1       H      0.731700000000     0.818400000000     0.065033333333     0          
O2       O      0.927300000000     0.878000000000     0.072700000000     0          
C1       C      0.916666666667     0.870433333333     0.083333333333     0          
C2       C      0.916666666667     0.851266666667     0.083333333333     0          
C3       C      0.927633333333     0.842300000000     0.072366666667     0          
H1       H      0.934966666667     0.848266666667     0.065033333333     0          
O2       O      0.927300000000     0.788666666667     0.260633333333     0          
C1       C      0.916666666667     0.796233333333     0.250000000000     0          
C2       C      0.916666666667     0.815400000000     0.250000000000     0          
C3       C      0.927633333333     0.824366666667     0.260966666667     0          
H1       H      0.934966666667     0.818400000000     0.268300000000     0          
O2       O      0.906033333333     0.760633333333     0.122000000000     0          
C3       C      0.905700000000     0.760966666667     0.157700000000     0          
H1       H      0.898366666667     0.768300000000     0.151733333333     0          
O2       O      0.739366666667     0.739366666667     0.122000000000     0          
C3       C      0.739033333333     0.739033333333     0.157700000000     0          
H1       H      0.731700000000     0.731700000000     0.151733333333     0          
O2       O      0.760633333333     0.906033333333     0.122000000000     0          
C3       C      0.760966666667     0.905700000000     0.157700000000     0          
H1       H      0.768300000000     0.898366666667     0.151733333333     0          
O2       O      0.927300000000     0.927300000000     0.122000000000     0          
C3       C      0.927633333333     0.927633333333     0.157700000000     0          
H1       H      0.934966666667     0.934966666667     0.151733333333     0          
O2       O      0.906033333333     0.906033333333     0.211333333333     0          
C3       C      0.905700000000     0.905700000000     0.175633333333     0          
H1       H      0.898366666667     0.898366666667     0.181600000000     0          
O2       O      0.927300000000     0.739366666667     0.211333333333     0          
C3       C      0.927633333333     0.739033333333     0.175633333333     0          
H1       H      0.934966666667     0.731700000000     0.181600000000     0          
O2       O      0.760633333333     0.760633333333     0.211333333333     0          
C3       C      0.760966666667     0.760966666667     0.175633333333     0          
H1       H      0.768300000000     0.768300000000     0.181600000000     0          
O2       O      0.739366666667     0.927300000000     0.211333333333     0          
C3       C      0.739033333333     0.927633333333     0.175633333333     0          
H1       H      0.731700000000     0.934966666667     0.181600000000     0          
O2       O      0.760633333333     0.788666666667     0.093966666667     0          
C3       C      0.760966666667     0.824366666667     0.094300000000     0          
H1       H      0.768300000000     0.818400000000     0.101633333333     0          
O2       O      0.906033333333     0.878000000000     0.093966666667     0          
C3       C      0.905700000000     0.842300000000     0.094300000000     0          
H1       H      0.898366666667     0.848266666667     0.101633333333     0          
O2       O      0.906033333333     0.788666666667     0.239366666667     0          
C3       C      0.905700000000     0.824366666667     0.239033333333     0          
H1       H      0.898366666667     0.818400000000     0.231700000000     0          
O2       O      0.760633333333     0.878000000000     0.239366666667     0          
C3       C      0.760966666667     0.842300000000     0.239033333333     0          
H1       H      0.768300000000     0.848266666667     0.231700000000     0          
O2       O      0.927300000000     0.788666666667     0.072700000000     0          
C3       C      0.927633333333     0.824366666667     0.072366666667     0          
H1       H      0.934966666667     0.818400000000     0.065033333333     0          
O2       O      0.927300000000     0.878000000000     0.260633333333     0          
C3       C      0.927633333333     0.842300000000     0.260966666667     0          
H1       H      0.934966666667     0.848266666667     0.268300000000     0          
O2       O      0.739366666667     0.788666666667     0.260633333333     0          
C3       C      0.739033333333     0.824366666667     0.260966666667     0          
H1       H      0.731700000000     0.818400000000     0.268300000000     0          
O2       O      0.739366666667     0.878000000000     0.072700000000     0          
C3       C      0.739033333333     0.842300000000     0.072366666667     0          
H1       H      0.731700000000     0.848266666667     0.065033333333     0          
O2       O      0.878000000000     0.760633333333     0.239366666667     0          
C1       C      0.870433333333     0.750000000000     0.250000000000     0          
C2       C      0.851266666667     0.750000000000     0.250000000000     0          
C3       C      0.842300000000     0.760966666667     0.239033333333     0          
H1       H      0.848266666667     0.768300000000     0.231700000000     0          
O2       O      0.788666666667     0.906033333333     0.239366666667     0          
C1       C      0.796233333333     0.916666666667     0.250000000000     0          
C2       C      0.815400000000     0.916666666667     0.250000000000     0          
C3       C      0.824366666667     0.905700000000     0.239033333333     0          
H1       H      0.818400000000     0.898366666667     0.231700000000     0          
O2       O      0.878000000000     0.906033333333     0.093966666667     0          
C1       C      0.870433333333     0.916666666667     0.083333333333     0          
C2       C      0.851266666667     0.916666666667     0.083333333333     0          
C3       C      0.842300000000     0.905700000000     0.094300000000     0          
H1       H      0.848266666667     0.898366666667     0.101633333333     0          
O2       O      0.788666666667     0.760633333333     0.093966666667     0          
C1       C      0.796233333333     0.750000000000     0.083333333333     0          
C2       C      0.815400000000     0.750000000000     0.083333333333     0          
C3       C      0.824366666667     0.760966666667     0.094300000000     0          
H1       H      0.818400000000     0.768300000000     0.101633333333     0          
O2       O      0.878000000000     0.739366666667     0.072700000000     0          
C1       C      0.870433333333     0.750000000000     0.083333333333     0          
C2       C      0.851266666667     0.750000000000     0.083333333333     0          
C3       C      0.842300000000     0.739033333333     0.072366666667     0          
H1       H      0.848266666667     0.731700000000     0.065033333333     0          
O2       O      0.788666666667     0.927300000000     0.072700000000     0          
C1       C      0.796233333333     0.916666666667     0.083333333333     0          
C2       C      0.815400000000     0.916666666667     0.083333333333     0          
C3       C      0.824366666667     0.927633333333     0.072366666667     0          
H1       H      0.818400000000     0.934966666667     0.065033333333     0          
O2       O      0.878000000000     0.927300000000     0.260633333333     0          
C1       C      0.870433333333     0.916666666667     0.250000000000     0          
C2       C      0.851266666667     0.916666666667     0.250000000000     0          
C3       C      0.842300000000     0.927633333333     0.260966666667     0          
H1       H      0.848266666667     0.934966666667     0.268300000000     0          
O2       O      0.788666666667     0.739366666667     0.260633333333     0          
C1       C      0.796233333333     0.750000000000     0.250000000000     0          
C2       C      0.815400000000     0.750000000000     0.250000000000     0          
C3       C      0.824366666667     0.739033333333     0.260966666667     0          
H1       H      0.818400000000     0.731700000000     0.268300000000     0          
O2       O      0.788666666667     0.906033333333     0.093966666667     0          
C3       C      0.824366666667     0.905700000000     0.094300000000     0          
H1       H      0.818400000000     0.898366666667     0.101633333333     0          
O2       O      0.878000000000     0.760633333333     0.093966666667     0          
C3       C      0.842300000000     0.760966666667     0.094300000000     0          
H1       H      0.848266666667     0.768300000000     0.101633333333     0          
O2       O      0.788666666667     0.760633333333     0.239366666667     0          
C3       C      0.824366666667     0.760966666667     0.239033333333     0          
H1       H      0.818400000000     0.768300000000     0.231700000000     0          
O2       O      0.878000000000     0.906033333333     0.239366666667     0          
C3       C      0.842300000000     0.905700000000     0.239033333333     0          
H1       H      0.848266666667     0.898366666667     0.231700000000     0          
O2       O      0.788666666667     0.927300000000     0.260633333333     0          
C3       C      0.824366666667     0.927633333333     0.260966666667     0          
H1       H      0.818400000000     0.934966666667     0.268300000000     0          
O2       O      0.878000000000     0.739366666667     0.260633333333     0          
C3       C      0.842300000000     0.739033333333     0.260966666667     0          
H1       H      0.848266666667     0.731700000000     0.268300000000     0          
O2       O      0.788666666667     0.739366666667     0.072700000000     0          
C3       C      0.824366666667     0.739033333333     0.072366666667     0          
H1       H      0.818400000000     0.731700000000     0.065033333333     0          
O2       O      0.878000000000     0.927300000000     0.072700000000     0          
C3       C      0.842300000000     0.927633333333     0.072366666667     0          
H1       H      0.848266666667     0.934966666667     0.065033333333     0          
Zn1      Zn     0.764466666667     0.735533333333     0.402200000000     0          
O1       O      0.750000000000     0.750000000000     0.416666666667     0          
O2       O      0.760633333333     0.739366666667     0.378000000000     0          
C1       C      0.750000000000     0.750000000000     0.370433333333     0          
C2       C      0.750000000000     0.750000000000     0.351266666667     0          
C3       C      0.760966666667     0.739033333333     0.342300000000     0          
H1       H      0.768300000000     0.731700000000     0.348266666667     0          
Zn1      Zn     0.931133333333     0.764466666667     0.402200000000     0          
O1       O      0.916666666667     0.750000000000     0.416666666667     0          
O2       O      0.927300000000     0.760633333333     0.378000000000     0          
C1       C      0.916666666667     0.750000000000     0.370433333333     0          
C2       C      0.916666666667     0.750000000000     0.351266666667     0          
C3       C      0.927633333333     0.760966666667     0.342300000000     0          
H1       H      0.934966666667     0.768300000000     0.348266666667     0          
Zn1      Zn     0.902200000000     0.931133333333     0.402200000000     0          
O1       O      0.916666666667     0.916666666667     0.416666666667     0          
O2       O      0.906033333333     0.927300000000     0.378000000000     0          
C1       C      0.916666666667     0.916666666667     0.370433333333     0          
C2       C      0.916666666667     0.916666666667     0.351266666667     0          
C3       C      0.905700000000     0.927633333333     0.342300000000     0          
H1       H      0.898366666667     0.934966666667     0.348266666667     0          
Zn1      Zn     0.735533333333     0.902200000000     0.402200000000     0          
O1       O      0.750000000000     0.916666666667     0.416666666667     0          
O2       O      0.739366666667     0.906033333333     0.378000000000     0          
C1       C      0.750000000000     0.916666666667     0.370433333333     0          
C2       C      0.750000000000     0.916666666667     0.351266666667     0          
C3       C      0.739033333333     0.905700000000     0.342300000000     0          
H1       H      0.731700000000     0.898366666667     0.348266666667     0          
Zn1      Zn     0.764466666667     0.931133333333     0.597800000000     0          
O1       O      0.750000000000     0.916666666667     0.583333333333     0          
O2       O      0.760633333333     0.927300000000     0.622000000000     0          
C1       C      0.750000000000     0.916666666667     0.629566666667     0          
C2       C      0.750000000000     0.916666666667     0.648733333333     0          
C3       C      0.760966666667     0.927633333333     0.657700000000     0          
H1       H      0.768300000000     0.934966666667     0.651733333333     0          
Zn1      Zn     0.735533333333     0.764466666667     0.597800000000     0          
O1       O      0.750000000000     0.750000000000     0.583333333333     0          
O2       O      0.739366666667     0.760633333333     0.622000000000     0          
C1       C      0.750000000000     0.750000000000     0.629566666667     0          
C2       C      0.750000000000     0.750000000000     0.648733333333     0          
C3       C      0.739033333333     0.760966666667     0.657700000000     0          
H1       H      0.731700000000     0.768300000000     0.651733333333     0          
Zn1      Zn     0.902200000000     0.735533333333     0.597800000000     0          
O1       O      0.916666666667     0.750000000000     0.583333333333     0          
O2       O      0.906033333333     0.739366666667     0.622000000000     0          
C1       C      0.916666666667     0.750000000000     0.629566666667     0          
C2       C      0.916666666667     0.750000000000     0.648733333333     0          
C3       C      0.905700000000     0.739033333333     0.657700000000     0          
H1       H      0.898366666667     0.731700000000     0.651733333333     0          
Zn1      Zn     0.931133333333     0.902200000000     0.597800000000     0          
O1       O      0.916666666667     0.916666666667     0.583333333333     0          
O2       O      0.927300000000     0.906033333333     0.622000000000     0          
C1       C      0.916666666667     0.916666666667     0.629566666667     0          
C2       C      0.916666666667     0.916666666667     0.648733333333     0          
C3       C      0.927633333333     0.905700000000     0.657700000000     0          
H1       H      0.934966666667     0.898366666667     0.651733333333     0          
Zn1      Zn     0.735533333333     0.764466666667     0.402200000000     0          
O2       O      0.711333333333     0.760633333333     0.406033333333     0          
C1       C      0.703766666667     0.750000000000     0.416666666667     0          
C2       C      0.684600000000     0.750000000000     0.416666666667     0          
C3       C      0.675633333333     0.760966666667     0.405700000000     0          
H1       H      0.681600000000     0.768300000000     0.398366666667     0          
Zn1      Zn     0.902200000000     0.735533333333     0.402200000000     0          
O2       O      0.906033333333     0.711333333333     0.406033333333     0          
C1       C      0.916666666667     0.703766666667     0.416666666667     0          
C2       C      0.916666666667     0.684600000000     0.416666666667     0          
C3       C      0.905700000000     0.675633333333     0.405700000000     0          
H1       H      0.898366666667     0.681600000000     0.398366666667     0          
Zn1      Zn     0.931133333333     0.902200000000     0.402200000000     0          
O2       O      0.955333333333     0.906033333333     0.406033333333     0          
C1       C      0.962900000000     0.916666666667     0.416666666667     0          
C2       C      0.982066666667     0.916666666667     0.416666666667     0          
C3       C      0.991033333333     0.905700000000     0.405700000000     0          
H1       H      0.985066666667     0.898366666667     0.398366666667     0          
Zn1      Zn     0.764466666667     0.931133333333     0.402200000000     0          
O2       O      0.760633333333     0.955333333333     0.406033333333     0          
C1       C      0.750000000000     0.962900000000     0.416666666667     0          
C2       C      0.750000000000     0.982066666667     0.416666666667     0          
C3       C      0.760966666667     0.991033333333     0.405700000000     0          
H1       H      0.768300000000     0.985066666667     0.398366666667     0          
Zn1      Zn     0.735533333333     0.902200000000     0.597800000000     0          
O2       O      0.711333333333     0.906033333333     0.593966666667     0          
C1       C      0.703766666667     0.916666666667     0.583333333333     0          
C2       C      0.684600000000     0.916666666667     0.583333333333     0          
C3       C      0.675633333333     0.905700000000     0.594300000000     0          
H1       H      0.681600000000     0.898366666667     0.601633333333     0          
Zn1      Zn     0.764466666667     0.735533333333     0.597800000000     0          
O2       O      0.760633333333     0.711333333333     0.593966666667     0          
C1       C      0.750000000000     0.703766666667     0.583333333333     0          
C2       C      0.750000000000     0.684600000000     0.583333333333     0          
C3       C      0.760966666667     0.675633333333     0.594300000000     0          
H1       H      0.768300000000     0.681600000000     0.601633333333     0          
Zn1      Zn     0.931133333333     0.764466666667     0.597800000000     0          
O2       O      0.955333333333     0.760633333333     0.593966666667     0          
C1       C      0.962900000000     0.750000000000     0.583333333333     0          
C2       C      0.982066666667     0.750000000000     0.583333333333     0          
C3       C      0.991033333333     0.760966666667     0.594300000000     0          
H1       H      0.985066666667     0.768300000000     0.601633333333     0          
Zn1      Zn     0.902200000000     0.931133333333     0.597800000000     0          
O2       O      0.906033333333     0.955333333333     0.593966666667     0          
C1       C      0.916666666667     0.962900000000     0.583333333333     0          
C2       C      0.916666666667     0.982066666667     0.583333333333     0          
C3       C      0.905700000000     0.991033333333     0.594300000000     0          
H1       H      0.898366666667     0.985066666667     0.601633333333     0          
Zn1      Zn     0.735533333333     0.735533333333     0.431133333333     0          
O2       O      0.739366666667     0.711333333333     0.427300000000     0          
C1       C      0.750000000000     0.703766666667     0.416666666667     0          
C2       C      0.750000000000     0.684600000000     0.416666666667     0          
C3       C      0.739033333333     0.675633333333     0.427633333333     0          
H1       H      0.731700000000     0.681600000000     0.434966666667     0          
Zn1      Zn     0.735533333333     0.931133333333     0.568866666667     0          
O2       O      0.739366666667     0.955333333333     0.572700000000     0          
C1       C      0.750000000000     0.962900000000     0.583333333333     0          
C2       C      0.750000000000     0.982066666667     0.583333333333     0          
C3       C      0.739033333333     0.991033333333     0.572366666667     0          
H1       H      0.731700000000     0.985066666667     0.565033333333     0          
Zn1      Zn     0.735533333333     0.735533333333     0.568866666667     0          
O2       O      0.711333333333     0.739366666667     0.572700000000     0          
C1       C      0.703766666667     0.750000000000     0.583333333333     0          
C2       C      0.684600000000     0.750000000000     0.583333333333     0          
C3       C      0.675633333333     0.739033333333     0.572366666667     0          
H1       H      0.681600000000     0.731700000000     0.565033333333     0          
Zn1      Zn     0.931133333333     0.735533333333     0.568866666667     0          
O2       O      0.927300000000     0.711333333333     0.572700000000     0          
C1       C      0.916666666667     0.703766666667     0.583333333333     0          
C2       C      0.916666666667     0.684600000000     0.583333333333     0          
C3       C      0.927633333333     0.675633333333     0.572366666667     0          
H1       H      0.934966666667     0.681600000000     0.565033333333     0          
Zn1      Zn     0.931133333333     0.931133333333     0.568866666667     0          
O2       O      0.955333333333     0.927300000000     0.572700000000     0          
C1       C      0.962900000000     0.916666666667     0.583333333333     0          
C2       C      0.982066666667     0.916666666667     0.583333333333     0          
C3       C      0.991033333333     0.927633333333     0.572366666667     0          
H1       H      0.985066666667     0.934966666667     0.565033333333     0          
Zn1      Zn     0.931133333333     0.931133333333     0.431133333333     0          
O2       O      0.927300000000     0.955333333333     0.427300000000     0          
C1       C      0.916666666667     0.962900000000     0.416666666667     0          
C2       C      0.916666666667     0.982066666667     0.416666666667     0          
C3       C      0.927633333333     0.991033333333     0.427633333333     0          
H1       H      0.934966666667     0.985066666667     0.434966666667     0          
Zn1      Zn     0.735533333333     0.931133333333     0.431133333333     0          
O2       O      0.711333333333     0.927300000000     0.427300000000     0          
C1       C      0.703766666667     0.916666666667     0.416666666667     0          
C2       C      0.684600000000     0.916666666667     0.416666666667     0          
C3       C      0.675633333333     0.927633333333     0.427633333333     0          
H1       H      0.681600000000     0.934966666667     0.434966666667     0          
Zn1      Zn     0.931133333333     0.735533333333     0.431133333333     0          
O2       O      0.955333333333     0.739366666667     0.427300000000     0          
C1       C      0.962900000000     0.750000000000     0.416666666667     0          
C2       C      0.982066666667     0.750000000000     0.416666666667     0          
C3       C      0.991033333333     0.739033333333     0.427633333333     0          
H1       H      0.985066666667     0.731700000000     0.434966666667     0          
O2       O      0.906033333333     0.927300000000     0.622000000000     0          
C3       C      0.905700000000     0.927633333333     0.657700000000     0          
H1       H      0.898366666667     0.934966666667     0.651733333333     0          
O2       O      0.739366666667     0.906033333333     0.622000000000     0          
C3       C      0.739033333333     0.905700000000     0.657700000000     0          
H1       H      0.731700000000     0.898366666667     0.651733333333     0          
O2       O      0.760633333333     0.739366666667     0.622000000000     0          
C3       C      0.760966666667     0.739033333333     0.657700000000     0          
H1       H      0.768300000000     0.731700000000     0.651733333333     0          
O2       O      0.927300000000     0.760633333333     0.622000000000     0          
C3       C      0.927633333333     0.760966666667     0.657700000000     0          
H1       H      0.934966666667     0.768300000000     0.651733333333     0          
O2       O      0.906033333333     0.739366666667     0.378000000000     0          
C3       C      0.905700000000     0.739033333333     0.342300000000     0          
H1       H      0.898366666667     0.731700000000     0.348266666667     0          
O2       O      0.927300000000     0.906033333333     0.378000000000     0          
C3       C      0.927633333333     0.905700000000     0.342300000000     0          
H1       H      0.934966666667     0.898366666667     0.348266666667     0          
O2       O      0.760633333333     0.927300000000     0.378000000000     0          
C3       C      0.760966666667     0.927633333333     0.342300000000     0          
H1       H      0.768300000000     0.934966666667     0.348266666667     0          
O2       O      0.739366666667     0.760633333333     0.378000000000     0          
C3       C      0.739033333333     0.760966666667     0.342300000000     0          
H1       H      0.731700000000     0.768300000000     0.348266666667     0          
O2       O      0.955333333333     0.906033333333     0.593966666667     0          
C3       C      0.991033333333     0.905700000000     0.594300000000     0          
H1       H      0.985066666667     0.898366666667     0.601633333333     0          
O2       O      0.760633333333     0.955333333333     0.593966666667     0          
C3       C      0.760966666667     0.991033333333     0.594300000000     0          
H1       H      0.768300000000     0.985066666667     0.601633333333     0          
O2       O      0.711333333333     0.760633333333     0.593966666667     0          
C3       C      0.675633333333     0.760966666667     0.594300000000     0          
H1       H      0.681600000000     0.768300000000     0.601633333333     0          
O2       O      0.906033333333     0.711333333333     0.593966666667     0          
C3       C      0.905700000000     0.675633333333     0.594300000000     0          
H1       H      0.898366666667     0.681600000000     0.601633333333     0          
O2       O      0.955333333333     0.760633333333     0.406033333333     0          
C3       C      0.991033333333     0.760966666667     0.405700000000     0          
H1       H      0.985066666667     0.768300000000     0.398366666667     0          
O2       O      0.906033333333     0.955333333333     0.406033333333     0          
C3       C      0.905700000000     0.991033333333     0.405700000000     0          
H1       H      0.898366666667     0.985066666667     0.398366666667     0          
O2       O      0.711333333333     0.906033333333     0.406033333333     0          
C3       C      0.675633333333     0.905700000000     0.405700000000     0          
H1       H      0.681600000000     0.898366666667     0.398366666667     0          
O2       O      0.760633333333     0.711333333333     0.406033333333     0          
C3       C      0.760966666667     0.675633333333     0.405700000000     0          
H1       H      0.768300000000     0.681600000000     0.398366666667     0          
O2       O      0.927300000000     0.955333333333     0.572700000000     0          
C3       C      0.927633333333     0.991033333333     0.572366666667     0          
H1       H      0.934966666667     0.985066666667     0.565033333333     0          
O2       O      0.927300000000     0.711333333333     0.427300000000     0          
C3       C      0.927633333333     0.675633333333     0.427633333333     0          
H1       H      0.934966666667     0.681600000000     0.434966666667     0          
O2       O      0.955333333333     0.927300000000     0.427300000000     0          
C3       C      0.991033333333     0.927633333333     0.427633333333     0          
H1       H      0.985066666667     0.934966666667     0.434966666667     0          
O2       O      0.739366666667     0.955333333333     0.427300000000     0          
C3       C      0.739033333333     0.991033333333     0.427633333333     0          
H1       H      0.731700000000     0.985066666667     0.434966666667     0          
O2       O      0.711333333333     0.739366666667     0.427300000000     0          
C3       C      0.675633333333     0.739033333333     0.427633333333     0          
H1       H      0.681600000000     0.731700000000     0.434966666667     0          
O2       O      0.739366666667     0.711333333333     0.572700000000     0          
C3       C      0.739033333333     0.675633333333     0.572366666667     0          
H1       H      0.731700000000     0.681600000000     0.565033333333     0          
O2       O      0.955333333333     0.739366666667     0.572700000000     0          
C3       C      0.991033333333     0.739033333333     0.572366666667     0          
H1       H      0.985066666667     0.731700000000     0.565033333333     0          
O2       O      0.711333333333     0.927300000000     0.572700000000     0          
C3       C      0.675633333333     0.927633333333     0.572366666667     0          
H1       H      0.681600000000     0.934966666667     0.565033333333     0          
Zn1      Zn     0.764466666667     0.902200000000     0.568866666667     0          
O2       O      0.760633333333     0.906033333333     0.544666666667     0          
C1       C      0.750000000000     0.916666666667     0.537100000000     0          
C2       C      0.750000000000     0.916666666667     0.517933333333     0          
C3       C      0.760966666667     0.905700000000     0.508966666667     0          
H1       H      0.768300000000     0.898366666667     0.514933333333     0          
O2       O      0.927300000000     0.927300000000     0.544666666667     0          
C1       C      0.916666666667     0.916666666667     0.537100000000     0          
C2       C      0.916666666667     0.916666666667     0.517933333333     0          
C3       C      0.927633333333     0.927633333333     0.508966666667     0          
H1       H      0.934966666667     0.934966666667     0.514933333333     0          
Zn1      Zn     0.902200000000     0.764466666667     0.568866666667     0          
O2       O      0.906033333333     0.760633333333     0.544666666667     0          
C1       C      0.916666666667     0.750000000000     0.537100000000     0          
C2       C      0.916666666667     0.750000000000     0.517933333333     0          
C3       C      0.905700000000     0.760966666667     0.508966666667     0          
H1       H      0.898366666667     0.768300000000     0.514933333333     0          
O2       O      0.739366666667     0.739366666667     0.544666666667     0          
C1       C      0.750000000000     0.750000000000     0.537100000000     0          
C2       C      0.750000000000     0.750000000000     0.517933333333     0          
C3       C      0.739033333333     0.739033333333     0.508966666667     0          
H1       H      0.731700000000     0.731700000000     0.514933333333     0          
Zn1      Zn     0.764466666667     0.764466666667     0.431133333333     0          
O2       O      0.760633333333     0.760633333333     0.455333333333     0          
C1       C      0.750000000000     0.750000000000     0.462900000000     0          
C2       C      0.750000000000     0.750000000000     0.482066666667     0          
C3       C      0.760966666667     0.760966666667     0.491033333333     0          
H1       H      0.768300000000     0.768300000000     0.485066666667     0          
O2       O      0.739366666667     0.927300000000     0.455333333333     0          
C1       C      0.750000000000     0.916666666667     0.462900000000     0          
C2       C      0.750000000000     0.916666666667     0.482066666667     0          
C3       C      0.739033333333     0.927633333333     0.491033333333     0          
H1       H      0.731700000000     0.934966666667     0.485066666667     0          
Zn1      Zn     0.902200000000     0.902200000000     0.431133333333     0          
O2       O      0.906033333333     0.906033333333     0.455333333333     0          
C1       C      0.916666666667     0.916666666667     0.462900000000     0          
C2       C      0.916666666667     0.916666666667     0.482066666667     0          
C3       C      0.905700000000     0.905700000000     0.491033333333     0          
H1       H      0.898366666667     0.898366666667     0.485066666667     0          
O2       O      0.927300000000     0.739366666667     0.455333333333     0          
C1       C      0.916666666667     0.750000000000     0.462900000000     0          
C2       C      0.916666666667     0.750000000000     0.482066666667     0          
C3       C      0.927633333333     0.739033333333     0.491033333333     0          
H1       H      0.934966666667     0.731700000000     0.485066666667     0          
Zn1      Zn     0.902200000000     0.902200000000     0.568866666667     0          
O2       O      0.906033333333     0.878000000000     0.572700000000     0          
C1       C      0.916666666667     0.870433333333     0.583333333333     0          
C2       C      0.916666666667     0.851266666667     0.583333333333     0          
C3       C      0.905700000000     0.842300000000     0.572366666667     0          
H1       H      0.898366666667     0.848266666667     0.565033333333     0          
Zn1      Zn     0.764466666667     0.764466666667     0.568866666667     0          
O2       O      0.760633333333     0.788666666667     0.572700000000     0          
C1       C      0.750000000000     0.796233333333     0.583333333333     0          
C2       C      0.750000000000     0.815400000000     0.583333333333     0          
C3       C      0.760966666667     0.824366666667     0.572366666667     0          
H1       H      0.768300000000     0.818400000000     0.565033333333     0          
Zn1      Zn     0.764466666667     0.902200000000     0.431133333333     0          
O2       O      0.760633333333     0.878000000000     0.427300000000     0          
C1       C      0.750000000000     0.870433333333     0.416666666667     0          
C2       C      0.750000000000     0.851266666667     0.416666666667     0          
C3       C      0.760966666667     0.842300000000     0.427633333333     0          
H1       H      0.768300000000     0.848266666667     0.434966666667     0          
Zn1      Zn     0.902200000000     0.764466666667     0.431133333333     0          
O2       O      0.906033333333     0.788666666667     0.427300000000     0          
C1       C      0.916666666667     0.796233333333     0.416666666667     0          
C2       C      0.916666666667     0.815400000000     0.416666666667     0          
C3       C      0.905700000000     0.824366666667     0.427633333333     0          
H1       H      0.898366666667     0.818400000000     0.434966666667     0          
O2       O      0.739366666667     0.878000000000     0.593966666667     0          
C1       C      0.750000000000     0.870433333333     0.583333333333     0          
C2       C      0.750000000000     0.851266666667     0.583333333333     0          
C3       C      0.739033333333     0.842300000000     0.594300000000     0          
H1       H      0.731700000000     0.848266666667     0.601633333333     0          
O2       O      0.739366666667     0.788666666667     0.406033333333     0          
C1       C      0.750000000000     0.796233333333     0.416666666667     0          
C2       C      0.750000000000     0.815400000000     0.416666666667     0          
C3       C      0.739033333333     0.824366666667     0.405700000000     0          
H1       H      0.731700000000     0.818400000000     0.398366666667     0          
O2       O      0.927300000000     0.878000000000     0.406033333333     0          
C1       C      0.916666666667     0.870433333333     0.416666666667     0          
C2       C      0.916666666667     0.851266666667     0.416666666667     0          
C3       C      0.927633333333     0.842300000000     0.405700000000     0          
H1       H      0.934966666667     0.848266666667     0.398366666667     0          
O2       O      0.927300000000     0.788666666667     0.593966666667     0          
C1       C      0.916666666667     0.796233333333     0.583333333333     0          
C2       C      0.916666666667     0.815400000000     0.583333333333     0          
C3       C      0.927633333333     0.824366666667     0.594300000000     0          
H1       H      0.934966666667     0.818400000000     0.601633333333     0          
O2       O      0.906033333333     0.760633333333     0.455333333333     0          
C3       C      0.905700000000     0.760966666667     0.491033333333     0          
H1       H      0.898366666667     0.768300000000     0.485066666667     0          
O2       O      0.739366666667     0.739366666667     0.455333333333     0          
C3       C      0.739033333333     0.739033333333     0.491033333333     0          
H1       H      0.731700000000     0.731700000000     0.485066666667     0          
O2       O      0.760633333333     0.906033333333     0.455333333333     0          
C3       C      0.760966666667     0.905700000000     0.491033333333     0          
H1       H      0.768300000000     0.898366666667     0.485066666667     0          
O2       O      0.927300000000     0.927300000000     0.455333333333     0          
C3       C      0.927633333333     0.927633333333     0.491033333333     0          
H1       H      0.934966666667     0.934966666667     0.485066666667     0          
O2       O      0.906033333333     0.906033333333     0.544666666667     0          
C3       C      0.905700000000     0.905700000000     0.508966666667     0          
H1       H      0.898366666667     0.898366666667     0.514933333333     0          
O2       O      0.927300000000     0.739366666667     0.544666666667     0          
C3       C      0.927633333333     0.739033333333     0.508966666667     0          
H1       H      0.934966666667     0.731700000000     0.514933333333     0          
O2       O      0.760633333333     0.760633333333     0.544666666667     0          
C3       C      0.760966666667     0.760966666667     0.508966666667     0          
H1       H      0.768300000000     0.768300000000     0.514933333333     0          
O2       O      0.739366666667     0.927300000000     0.544666666667     0          
C3       C      0.739033333333     0.927633333333     0.508966666667     0          
H1       H      0.731700000000     0.934966666667     0.514933333333     0          
O2       O      0.760633333333     0.788666666667     0.427300000000     0          
C3       C      0.760966666667     0.824366666667     0.427633333333     0          
H1       H      0.768300000000     0.818400000000     0.434966666667     0          
O2       O      0.906033333333     0.878000000000     0.427300000000     0          
C3       C      0.905700000000     0.842300000000     0.427633333333     0          
H1       H      0.898366666667     0.848266666667     0.434966666667     0          
O2       O      0.906033333333     0.788666666667     0.572700000000     0          
C3       C      0.905700000000     0.824366666667     0.572366666667     0          
H1       H      0.898366666667     0.818400000000     0.565033333333     0          
O2       O      0.760633333333     0.878000000000     0.572700000000     0          
C3       C      0.760966666667     0.842300000000     0.572366666667     0          
H1       H      0.768300000000     0.848266666667     0.565033333333     0          
O2       O      0.927300000000     0.788666666667     0.406033333333     0          
C3       C      0.927633333333     0.824366666667     0.405700000000     0          
H1       H      0.934966666667     0.818400000000     0.398366666667     0          
O2       O      0.927300000000     0.878000000000     0.593966666667     0          
C3       C      0.927633333333     0.842300000000     0.594300000000     0          
H1       H      0.934966666667     0.848266666667     0.601633333333     0          
O2       O      0.739366666667     0.788666666667     0.593966666667     0          
C3       C      0.739033333333     0.824366666667     0.594300000000     0          
H1       H      0.731700000000     0.818400000000     0.601633333333     0          
O2       O      0.739366666667     0.878000000000     0.406033333333     0          
C3       C      0.739033333333     0.842300000000     0.405700000000     0          
H1       H      0.731700000000     0.848266666667     0.398366666667     0          
O2       O      0.878000000000     0.760633333333     0.572700000000     0          
C1       C      0.870433333333     0.750000000000     0.583333333333     0          
C2       C      0.851266666667     0.750000000000     0.583333333333     0          
C3       C      0.842300000000     0.760966666667     0.572366666667     0          
H1       H      0.848266666667     0.768300000000     0.565033333333     0          
O2       O      0.788666666667     0.906033333333     0.572700000000     0          
C1       C      0.796233333333     0.916666666667     0.583333333333     0          
C2       C      0.815400000000     0.916666666667     0.583333333333     0          
C3       C      0.824366666667     0.905700000000     0.572366666667     0          
H1       H      0.818400000000     0.898366666667     0.565033333333     0          
O2       O      0.878000000000     0.906033333333     0.427300000000     0          
C1       C      0.870433333333     0.916666666667     0.416666666667     0          
C2       C      0.851266666667     0.916666666667     0.416666666667     0          
C3       C      0.842300000000     0.905700000000     0.427633333333     0          
H1       H      0.848266666667     0.898366666667     0.434966666667     0          
O2       O      0.788666666667     0.760633333333     0.427300000000     0          
C1       C      0.796233333333     0.750000000000     0.416666666667     0          
C2       C      0.815400000000     0.750000000000     0.416666666667     0          
C3       C      0.824366666667     0.760966666667     0.427633333333     0          
H1       H      0.818400000000     0.768300000000     0.434966666667     0          
O2       O      0.878000000000     0.739366666667     0.406033333333     0          
C1       C      0.870433333333     0.750000000000     0.416666666667     0          
C2       C      0.851266666667     0.750000000000     0.416666666667     0          
C3       C      0.842300000000     0.739033333333     0.405700000000     0          
H1       H      0.848266666667     0.731700000000     0.398366666667     0          
O2       O      0.788666666667     0.927300000000     0.406033333333     0          
C1       C      0.796233333333     0.916666666667     0.416666666667     0          
C2       C      0.815400000000     0.916666666667     0.416666666667     0          
C3       C      0.824366666667     0.927633333333     0.405700000000     0          
H1       H      0.818400000000     0.934966666667     0.398366666667     0          
O2       O      0.878000000000     0.927300000000     0.593966666667     0          
C1       C      0.870433333333     0.916666666667     0.583333333333     0          
C2       C      0.851266666667     0.916666666667     0.583333333333     0          
C3       C      0.842300000000     0.927633333333     0.594300000000     0          
H1       H      0.848266666667     0.934966666667     0.601633333333     0          
O2       O      0.788666666667     0.739366666667     0.593966666667     0          
C1       C      0.796233333333     0.750000000000     0.583333333333     0          
C2       C      0.815400000000     0.750000000000     0.583333333333     0          
C3       C      0.824366666667     0.739033333333     0.594300000000     0          
H1       H      0.818400000000     0.731700000000     0.601633333333     0          
O2       O      0.788666666667     0.906033333333     0.427300000000     0          
C3       C      0.824366666667     0.905700000000     0.427633333333     0          
H1       H      0.818400000000     0.898366666667     0.434966666667     0          
O2       O      0.878000000000     0.760633333333     0.427300000000     0          
C3       C      0.842300000000     0.760966666667     0.427633333333     0          
H1       H      0.848266666667     0.768300000000     0.434966666667     0          
O2       O      0.788666666667     0.760633333333     0.572700000000     0          
C3       C      0.824366666667     0.760966666667     0.572366666667     0          
H1       H      0.818400000000     0.768300000000     0.565033333333     0          
O2       O      0.878000000000     0.906033333333     0.572700000000     0          
C3       C      0.842300000000     0.905700000000     0.572366666667     0          
H1       H      0.848266666667     0.898366666667     0.565033333333     0          
O2       O      0.788666666667     0.927300000000     0.593966666667     0          
C3       C      0.824366666667     0.927633333333     0.594300000000     0          
H1       H      0.818400000000     0.934966666667     0.601633333333     0          
O2       O      0.878000000000     0.739366666667     0.593966666667     0          
C3       C      0.842300000000     0.739033333333     0.594300000000     0          
H1       H      0.848266666667     0.731700000000     0.601633333333     0          
O2       O      0.788666666667     0.739366666667     0.406033333333     0          
C3       C      0.824366666667     0.739033333333     0.405700000000     0          
H1       H      0.818400000000     0.731700000000     0.398366666667     0          
O2       O      0.878000000000     0.927300000000     0.406033333333     0          
C3       C      0.842300000000     0.927633333333     0.405700000000     0          
H1       H      0.848266666667     0.934966666667     0.398366666667     0          
Zn1      Zn     0.764466666667     0.735533333333     0.735533333333     0          
O1       O      0.750000000000     0.750000000000     0.750000000000     0          
O2       O      0.760633333333     0.739366666667     0.711333333333     0          
C1       C      0.750000000000     0.750000000000     0.703766666667     0          
C2       C      0.750000000000     0.750000000000     0.684600000000     0          
C3       C      0.760966666667     0.739033333333     0.675633333333     0          
H1       H      0.768300000000     0.731700000000     0.681600000000     0          
Zn1      Zn     0.931133333333     0.764466666667     0.735533333333     0          
O1       O      0.916666666667     0.750000000000     0.750000000000     0          
O2       O      0.927300000000     0.760633333333     0.711333333333     0          
C1       C      0.916666666667     0.750000000000     0.703766666667     0          
C2       C      0.916666666667     0.750000000000     0.684600000000     0          
C3       C      0.927633333333     0.760966666667     0.675633333333     0          
H1       H      0.934966666667     0.768300000000     0.681600000000     0          
Zn1      Zn     0.902200000000     0.931133333333     0.735533333333     0          
O1       O      0.916666666667     0.916666666667     0.750000000000     0          
O2       O      0.906033333333     0.927300000000     0.711333333333     0          
C1       C      0.916666666667     0.916666666667     0.703766666667     0          
C2       C      0.916666666667     0.916666666667     0.684600000000     0          
C3       C      0.905700000000     0.927633333333     0.675633333333     0          
H1       H      0.898366666667     0.934966666667     0.681600000000     0          
Zn1      Zn     0.735533333333     0.902200000000     0.735533333333     0          
O1       O      0.750000000000     0.916666666667     0.750000000000     0          
O2       O      0.739366666667     0.906033333333     0.711333333333     0          
C1       C      0.750000000000     0.916666666667     0.703766666667     0          
C2       C      0.750000000000     0.916666666667     0.684600000000     0          
C3       C      0.739033333333     0.905700000000     0.675633333333     0          
H1       H      0.731700000000     0.898366666667     0.681600000000     0          
Zn1      Zn     0.764466666667     0.931133333333     0.931133333333     0          
O1       O      0.750000000000     0.916666666667     0.916666666667     0          
O2       O      0.760633333333     0.927300000000     0.955333333333     0          
C1       C      0.750000000000     0.916666666667     0.962900000000     0          
C2       C      0.750000000000     0.916666666667     0.982066666667     0          
C3       C      0.760966666667     0.927633333333     0.991033333333     0          
H1       H      0.768300000000     0.934966666667     0.985066666667     0          
Zn1      Zn     0.735533333333     0.764466666667     0.931133333333     0          
O1       O      0.750000000000     0.750000000000     0.916666666667     0          
O2       O      0.739366666667     0.760633333333     0.955333333333     0          
C1       C      0.750000000000     0.750000000000     0.962900000000     0          
C2       C      0.750000000000     0.750000000000     0.982066666667     0          
C3       C      0.739033333333     0.760966666667     0.991033333333     0          
H1       H      0.731700000000     0.768300000000     0.985066666667     0          
Zn1      Zn     0.902200000000     0.735533333333     0.931133333333     0          
O1       O      0.916666666667     0.750000000000     0.916666666667     0          
O2       O      0.906033333333     0.739366666667     0.955333333333     0          
C1       C      0.916666666667     0.750000000000     0.962900000000     0          
C2       C      0.916666666667     0.750000000000     0.982066666667     0          
C3       C      0.905700000000     0.739033333333     0.991033333333     0          
H1       H      0.898366666667     0.731700000000     0.985066666667     0          
Zn1      Zn     0.931133333333     0.902200000000     0.931133333333     0          
O1       O      0.916666666667     0.916666666667     0.916666666667     0          
O2       O      0.927300000000     0.906033333333     0.955333333333     0          
C1       C      0.916666666667     0.916666666667     0.962900000000     0          
C2       C      0.916666666667     0.916666666667     0.982066666667     0          
C3       C      0.927633333333     0.905700000000     0.991033333333     0          
H1       H      0.934966666667     0.898366666667     0.985066666667     0          
Zn1      Zn     0.735533333333     0.764466666667     0.735533333333     0          
O2       O      0.711333333333     0.760633333333     0.739366666667     0          
C1       C      0.703766666667     0.750000000000     0.750000000000     0          
C2       C      0.684600000000     0.750000000000     0.750000000000     0          
C3       C      0.675633333333     0.760966666667     0.739033333333     0          
H1       H      0.681600000000     0.768300000000     0.731700000000     0          
Zn1      Zn     0.902200000000     0.735533333333     0.735533333333     0          
O2       O      0.906033333333     0.711333333333     0.739366666667     0          
C1       C      0.916666666667     0.703766666667     0.750000000000     0          
C2       C      0.916666666667     0.684600000000     0.750000000000     0          
C3       C      0.905700000000     0.675633333333     0.739033333333     0          
H1       H      0.898366666667     0.681600000000     0.731700000000     0          
Zn1      Zn     0.931133333333     0.902200000000     0.735533333333     0          
O2       O      0.955333333333     0.906033333333     0.739366666667     0          
C1       C      0.962900000000     0.916666666667     0.750000000000     0          
C2       C      0.982066666667     0.916666666667     0.750000000000     0          
C3       C      0.991033333333     0.905700000000     0.739033333333     0          
H1       H      0.985066666667     0.898366666667     0.731700000000     0          
Zn1      Zn     0.764466666667     0.931133333333     0.735533333333     0          
O2       O      0.760633333333     0.955333333333     0.739366666667     0          
C1       C      0.750000000000     0.962900000000     0.750000000000     0          
C2       C      0.750000000000     0.982066666667     0.750000000000     0          
C3       C      0.760966666667     0.991033333333     0.739033333333     0          
H1       H      0.768300000000     0.985066666667     0.731700000000     0          
Zn1      Zn     0.735533333333     0.902200000000     0.931133333333     0          
O2       O      0.711333333333     0.906033333333     0.927300000000     0          
C1       C      0.703766666667     0.916666666667     0.916666666667     0          
C2       C      0.684600000000     0.916666666667     0.916666666667     0          
C3       C      0.675633333333     0.905700000000     0.927633333333     0          
H1       H      0.681600000000     0.898366666667     0.934966666667     0          
Zn1      Zn     0.764466666667     0.735533333333     0.931133333333     0          
O2       O      0.760633333333     0.711333333333     0.927300000000     0          
C1       C      0.750000000000     0.703766666667     0.916666666667     0          
C2       C      0.750000000000     0.684600000000     0.916666666667     0          
C3       C      0.760966666667     0.675633333333     0.927633333333     0          
H1       H      0.768300000000     0.681600000000     0.934966666667     0          
Zn1      Zn     0.931133333333     0.764466666667     0.931133333333     0          
O2       O      0.955333333333     0.760633333333     0.927300000000     0          
C1       C      0.962900000000     0.750000000000     0.916666666667     0          
C2       C      0.982066666667     0.750000000000     0.916666666667     0          
C3       C      0.991033333333     0.760966666667     0.927633333333     0          
H1       H      0.985066666667     0.768300000000     0.934966666667     0          
Zn1      Zn     0.902200000000     0.931133333333     0.931133333333     0          
O2       O      0.906033333333     0.955333333333     0.927300000000     0          
C1       C      0.916666666667     0.962900000000     0.916666666667     0          
C2       C      0.916666666667     0.982066666667     0.916666666667     0          
C3       C      0.905700000000     0.991033333333     0.927633333333     0          
H1       H      0.898366666667     0.985066666667     0.934966666667     0          
Zn1      Zn     0.735533333333     0.735533333333     0.764466666667     0          
O2       O      0.739366666667     0.711333333333     0.760633333333     0          
C1       C      0.750000000000     0.703766666667     0.750000000000     0          
C2       C      0.750000000000     0.684600000000     0.750000000000     0          
C3       C      0.739033333333     0.675633333333     0.760966666667     0          
H1       H      0.731700000000     0.681600000000     0.768300000000     0          
Zn1      Zn     0.735533333333     0.931133333333     0.902200000000     0          
O2       O      0.739366666667     0.955333333333     0.906033333333     0          
C1       C      0.750000000000     0.962900000000     0.916666666667     0          
C2       C      0.750000000000     0.982066666667     0.916666666667     0          
C3       C      0.739033333333     0.991033333333     0.905700000000     0          
H1       H      0.731700000000     0.985066666667     0.898366666667     0          
Zn1      Zn     0.735533333333     0.735533333333     0.902200000000     0          
O2       O      0.711333333333     0.739366666667     0.906033333333     0          
C1       C      0.703766666667     0.750000000000     0.916666666667     0          
C2       C      0.684600000000     0.750000000000     0.916666666667     0          
C3       C      0.675633333333     0.739033333333     0.905700000000     0          
H1       H      0.681600000000     0.731700000000     0.898366666667     0          
Zn1      Zn     0.931133333333     0.735533333333     0.902200000000     0          
O2       O      0.927300000000     0.711333333333     0.906033333333     0          
C1       C      0.916666666667     0.703766666667     0.916666666667     0          
C2       C      0.916666666667     0.684600000000     0.916666666667     0          
C3       C      0.927633333333     0.675633333333     0.905700000000     0          
H1       H      0.934966666667     0.681600000000     0.898366666667     0          
Zn1      Zn     0.931133333333     0.931133333333     0.902200000000     0          
O2       O      0.955333333333     0.927300000000     0.906033333333     0          
C1       C      0.962900000000     0.916666666667     0.916666666667     0          
C2       C      0.982066666667     0.916666666667     0.916666666667     0          
C3       C      0.991033333333     0.927633333333     0.905700000000     0          
H1       H      0.985066666667     0.934966666667     0.898366666667     0          
Zn1      Zn     0.931133333333     0.931133333333     0.764466666667     0          
O2       O      0.927300000000     0.955333333333     0.760633333333     0          
C1       C      0.916666666667     0.962900000000     0.750000000000     0          
C2       C      0.916666666667     0.982066666667     0.750000000000     0          
C3       C      0.927633333333     0.991033333333     0.760966666667     0          
H1       H      0.934966666667     0.985066666667     0.768300000000     0          
Zn1      Zn     0.735533333333     0.931133333333     0.764466666667     0          
O2       O      0.711333333333     0.927300000000     0.760633333333     0          
C1       C      0.703766666667     0.916666666667     0.750000000000     0          
C2       C      0.684600000000     0.916666666667     0.750000000000     0          
C3       C      0.675633333333     0.927633333333     0.760966666667     0          
H1       H      0.681600000000     0.934966666667     0.768300000000     0          
Zn1      Zn     0.931133333333     0.735533333333     0.764466666667     0          
O2       O      0.955333333333     0.739366666667     0.760633333333     0          
C1       C      0.962900000000     0.750000000000     0.750000000000     0          
C2       C      0.982066666667     0.750000000000     0.750000000000     0          
C3       C      0.991033333333     0.739033333333     0.760966666667     0          
H1       H      0.985066666667     0.731700000000     0.768300000000     0          
O2       O      0.906033333333     0.927300000000     0.955333333333     0          
C3       C      0.905700000000     0.927633333333     0.991033333333     0          
H1       H      0.898366666667     0.934966666667     0.985066666667     0          
O2       O      0.739366666667     0.906033333333     0.955333333333     0          
C3       C      0.739033333333     0.905700000000     0.991033333333     0          
H1       H      0.731700000000     0.898366666667     0.985066666667     0          
O2       O      0.760633333333     0.739366666667     0.955333333333     0          
C3       C      0.760966666667     0.739033333333     0.991033333333     0          
H1       H      0.768300000000     0.731700000000     0.985066666667     0          
O2       O      0.927300000000     0.760633333333     0.955333333333     0          
C3       C      0.927633333333     0.760966666667     0.991033333333     0          
H1       H      0.934966666667     0.768300000000     0.985066666667     0          
O2       O      0.906033333333     0.739366666667     0.711333333333     0          
C3       C      0.905700000000     0.739033333333     0.675633333333     0          
H1       H      0.898366666667     0.731700000000     0.681600000000     0          
O2       O      0.927300000000     0.906033333333     0.711333333333     0          
C3       C      0.927633333333     0.905700000000     0.675633333333     0          
H1       H      0.934966666667     0.898366666667     0.681600000000     0          
O2       O      0.760633333333     0.927300000000     0.711333333333     0          
C3       C      0.760966666667     0.927633333333     0.675633333333     0          
H1       H      0.768300000000     0.934966666667     0.681600000000     0          
O2       O      0.739366666667     0.760633333333     0.711333333333     0          
C3       C      0.739033333333     0.760966666667     0.675633333333     0          
H1       H      0.731700000000     0.768300000000     0.681600000000     0          
O2       O      0.955333333333     0.906033333333     0.927300000000     0          
C3       C      0.991033333333     0.905700000000     0.927633333333     0          
H1       H      0.985066666667     0.898366666667     0.934966666667     0          
O2       O      0.760633333333     0.955333333333     0.927300000000     0          
C3       C      0.760966666667     0.991033333333     0.927633333333     0          
H1       H      0.768300000000     0.985066666667     0.934966666667     0          
O2       O      0.711333333333     0.760633333333     0.927300000000     0          
C3       C      0.675633333333     0.760966666667     0.927633333333     0          
H1       H      0.681600000000     0.768300000000     0.934966666667     0          
O2       O      0.906033333333     0.711333333333     0.927300000000     0          
C3       C      0.905700000000     0.675633333333     0.927633333333     0          
H1       H      0.898366666667     0.681600000000     0.934966666667     0          
O2       O      0.955333333333     0.760633333333     0.739366666667     0          
C3       C      0.991033333333     0.760966666667     0.739033333333     0          
H1       H      0.985066666667     0.768300000000     0.731700000000     0          
O2       O      0.906033333333     0.955333333333     0.739366666667     0          
C3       C      0.905700000000     0.991033333333     0.739033333333     0          
H1       H      0.898366666667     0.985066666667     0.731700000000     0          
O2       O      0.711333333333     0.906033333333     0.739366666667     0          
C3       C      0.675633333333     0.905700000000     0.739033333333     0          
H1       H      0.681600000000     0.898366666667     0.731700000000     0          
O2       O      0.760633333333     0.711333333333     0.739366666667     0          
C3       C      0.760966666667     0.675633333333     0.739033333333     0          
H1       H      0.768300000000     0.681600000000     0.731700000000     0          
O2       O      0.927300000000     0.955333333333     0.906033333333     0          
C3       C      0.927633333333     0.991033333333     0.905700000000     0          
H1       H      0.934966666667     0.985066666667     0.898366666667     0          
O2       O      0.927300000000     0.711333333333     0.760633333333     0          
C3       C      0.927633333333     0.675633333333     0.760966666667     0          
H1       H      0.934966666667     0.681600000000     0.768300000000     0          
O2       O      0.955333333333     0.927300000000     0.760633333333     0          
C3       C      0.991033333333     0.927633333333     0.760966666667     0          
H1       H      0.985066666667     0.934966666667     0.768300000000     0          
O2       O      0.739366666667     0.955333333333     0.760633333333     0          
C3       C      0.739033333333     0.991033333333     0.760966666667     0          
H1       H      0.731700000000     0.985066666667     0.768300000000     0          
O2       O      0.711333333333     0.739366666667     0.760633333333     0          
C3       C      0.675633333333     0.739033333333     0.760966666667     0          
H1       H      0.681600000000     0.731700000000     0.768300000000     0          
O2       O      0.739366666667     0.711333333333     0.906033333333     0          
C3       C      0.739033333333     0.675633333333     0.905700000000     0          
H1       H      0.731700000000     0.681600000000     0.898366666667     0          
O2       O      0.955333333333     0.739366666667     0.906033333333     0          
C3       C      0.991033333333     0.739033333333     0.905700000000     0          
H1       H      0.985066666667     0.731700000000     0.898366666667     0          
O2       O      0.711333333333     0.927300000000     0.906033333333     0          
C3       C      0.675633333333     0.927633333333     0.905700000000     0          
H1       H      0.681600000000     0.934966666667     0.898366666667     0          
Zn1      Zn     0.764466666667     0.902200000000     0.902200000000     0          
O2       O      0.760633333333     0.906033333333     0.878000000000     0          
C1       C      0.750000000000     0.916666666667     0.870433333333     0          
C2       C      0.750000000000     0.916666666667     0.851266666667     0          
C3       C      0.760966666667     0.905700000000     0.842300000000     0          
H1       H      0.768300000000     0.898366666667     0.848266666667     0          
O2       O      0.927300000000     0.927300000000     0.878000000000     0          
C1       C      0.916666666667     0.916666666667     0.870433333333     0          
C2       C      0.916666666667     0.916666666667     0.851266666667     0          
C3       C      0.927633333333     0.927633333333     0.842300000000     0          
H1       H      0.934966666667     0.934966666667     0.848266666667     0          
Zn1      Zn     0.902200000000     0.764466666667     0.902200000000     0          
O2       O      0.906033333333     0.760633333333     0.878000000000     0          
C1       C      0.916666666667     0.750000000000     0.870433333333     0          
C2       C      0.916666666667     0.750000000000     0.851266666667     0          
C3       C      0.905700000000     0.760966666667     0.842300000000     0          
H1       H      0.898366666667     0.768300000000     0.848266666667     0          
O2       O      0.739366666667     0.739366666667     0.878000000000     0          
C1       C      0.750000000000     0.750000000000     0.870433333333     0          
C2       C      0.750000000000     0.750000000000     0.851266666667     0          
C3       C      0.739033333333     0.739033333333     0.842300000000     0          
H1       H      0.731700000000     0.731700000000     0.848266666667     0          
Zn1      Zn     0.764466666667     0.764466666667     0.764466666667     0          
O2       O      0.760633333333     0.760633333333     0.788666666667     0          
C1       C      0.750000000000     0.750000000000     0.796233333333     0          
C2       C      0.750000000000     0.750000000000     0.815400000000     0          
C3       C      0.760966666667     0.760966666667     0.824366666667     0          
H1       H      0.768300000000     0.768300000000     0.818400000000     0          
O2       O      0.739366666667     0.927300000000     0.788666666667     0          
C1       C      0.750000000000     0.916666666667     0.796233333333     0          
C2       C      0.750000000000     0.916666666667     0.815400000000     0          
C3       C      0.739033333333     0.927633333333     0.824366666667     0          
H1       H      0.731700000000     0.934966666667     0.818400000000     0          
Zn1      Zn     0.902200000000     0.902200000000     0.764466666667     0          
O2       O      0.906033333333     0.906033333333     0.788666666667     0          
C1       C      0.916666666667     0.916666666667     0.796233333333     0          
C2       C      0.916666666667     0.916666666667     0.815400000000     0          
C3       C      0.905700000000     0.905700000000     0.824366666667     0          
H1       H      0.898366666667     0.898366666667     0.818400000000     0          
O2       O      0.927300000000     0.739366666667     0.788666666667     0          
C1       C      0.916666666667     0.750000000000     0.796233333333     0          
C2       C      0.916666666667     0.750000000000     0.815400000000     0          
C3       C      0.927633333333     0.739033333333     0.824366666667     0          
H1       H      0.934966666667     0.731700000000     0.818400000000     0          
Zn1      Zn     0.902200000000     0.902200000000     0.902200000000     0          
O2       O      0.906033333333     0.878000000000     0.906033333333     0          
C1       C      0.916666666667     0.870433333333     0.916666666667     0          
C2       C      0.916666666667     0.851266666667     0.916666666667     0          
C3       C      0.905700000000     0.842300000000     0.905700000000     0          
H1       H      0.898366666667     0.848266666667     0.898366666667     0          
Zn1      Zn     0.764466666667     0.764466666667     0.902200000000     0          
O2       O      0.760633333333     0.788666666667     0.906033333333     0          
C1       C      0.750000000000     0.796233333333     0.916666666667     0          
C2       C      0.750000000000     0.815400000000     0.916666666667     0          
C3       C      0.760966666667     0.824366666667     0.905700000000     0          
H1       H      0.768300000000     0.818400000000     0.898366666667     0          
Zn1      Zn     0.764466666667     0.902200000000     0.764466666667     0          
O2       O      0.760633333333     0.878000000000     0.760633333333     0          
C1       C      0.750000000000     0.870433333333     0.750000000000     0          
C2       C      0.750000000000     0.851266666667     0.750000000000     0          
C3       C      0.760966666667     0.842300000000     0.760966666667     0          
H1       H      0.768300000000     0.848266666667     0.768300000000     0          
Zn1      Zn     0.902200000000     0.764466666667     0.764466666667     0          
O2       O      0.906033333333     0.788666666667     0.760633333333     0          
C1       C      0.916666666667     0.796233333333     0.750000000000     0          
C2       C      0.916666666667     0.815400000000     0.750000000000     0          
C3       C      0.905700000000     0.824366666667     0.760966666667     0          
H1       H      0.898366666667     0.818400000000     0.768300000000     0          
O2       O      0.739366666667     0.878000000000     0.927300000000     0          
C1       C      0.750000000000     0.870433333333     0.916666666667     0          
C2       C      0.750000000000     0.851266666667     0.916666666667     0          
C3       C      0.739033333333     0.842300000000     0.927633333333     0          
H1       H      0.731700000000     0.848266666667     0.934966666667     0          
O2       O      0.739366666667     0.788666666667     0.739366666667     0          
C1       C      0.750000000000     0.796233333333     0.750000000000     0          
C2       C      0.750000000000     0.815400000000     0.750000000000     0          
C3       C      0.739033333333     0.824366666667     0.739033333333     0          
H1       H      0.731700000000     0.818400000000     0.731700000000     0          
O2       O      0.927300000000     0.878000000000     0.739366666667     0          
C1       C      0.916666666667     0.870433333333     0.750000000000     0          
C2       C      0.916666666667     0.851266666667     0.750000000000     0          
C3       C      0.927633333333     0.842300000000     0.739033333333     0          
H1       H      0.934966666667     0.848266666667     0.731700000000     0          
O2       O      0.927300000000     0.788666666667     0.927300000000     0          
C1       C      0.916666666667     0.796233333333     0.916666666667     0          
C2       C      0.916666666667     0.815400000000     0.916666666667     0          
C3       C      0.927633333333     0.824366666667     0.927633333333     0          
H1       H      0.934966666667     0.818400000000     0.934966666667     0          
O2       O      0.906033333333     0.760633333333     0.788666666667     0          
C3       C      0.905700000000     0.760966666667     0.824366666667     0          
H1       H      0.898366666667     0.768300000000     0.818400000000     0          
O2       O      0.739366666667     0.739366666667     0.788666666667     0          
C3       C      0.739033333333     0.739033333333     0.824366666667     0          
H1       H      0.731700000000     0.731700000000     0.818400000000     0          
O2       O      0.760633333333     0.906033333333     0.788666666667     0          
C3       C      0.760966666667     0.905700000000     0.824366666667     0          
H1       H      0.768300000000     0.898366666667     0.818400000000     0          
O2       O      0.927300000000     0.927300000000     0.788666666667     0          
C3       C      0.927633333333     0.927633333333     0.824366666667     0          
H1       H      0.934966666667     0.934966666667     0.818400000000     0          
O2       O      0.906033333333     0.906033333333     0.878000000000     0          
C3       C      0.905700000000     0.905700000000     0.842300000000     0          
H1       H      0.898366666667     0.898366666667     0.848266666667     0          
O2       O      0.927300000000     0.739366666667     0.878000000000     0          
C3       C      0.927633333333     0.739033333333     0.842300000000     0          
H1       H      0.934966666667     0.731700000000     0.848266666667     0          
O2       O      0.760633333333     0.760633333333     0.878000000000     0          
C3       C      0.760966666667     0.760966666667     0.842300000000     0          
H1       H      0.768300000000     0.768300000000     0.848266666667     0          
O2       O      0.739366666667     0.927300000000     0.878000000000     0          
C3       C      0.739033333333     0.927633333333     0.842300000000     0          
H1       H      0.731700000000     0.934966666667     0.848266666667     0          
O2       O      0.760633333333     0.788666666667     0.760633333333     0          
C3       C      0.760966666667     0.824366666667     0.760966666667     0          
H1       H      0.768300000000     0.818400000000     0.768300000000     0          
O2       O      0.906033333333     0.878000000000     0.760633333333     0          
C3       C      0.905700000000     0.842300000000     0.760966666667     0          
H1       H      0.898366666667     0.848266666667     0.768300000000     0          
O2       O      0.906033333333     0.788666666667     0.906033333333     0          
C3       C      0.905700000000     0.824366666667     0.905700000000     0          
H1       H      0.898366666667     0.818400000000     0.898366666667     0          
O2       O      0.760633333333     0.878000000000     0.906033333333     0          
C3       C      0.760966666667     0.842300000000     0.905700000000     0          
H1       H      0.768300000000     0.848266666667     0.898366666667     0          
O2       O      0.927300000000     0.788666666667     0.739366666667     0          
C3       C      0.927633333333     0.824366666667     0.739033333333     0          
H1       H      0.934966666667     0.818400000000     0.731700000000     0          
O2       O      0.927300000000     0.878000000000     0.927300000000     0          
C3       C      0.927633333333     0.842300000000     0.927633333333     0          
H1       H      0.934966666667     0.848266666667     0.934966666667     0          
O2       O      0.739366666667     0.788666666667     0.927300000000     0          
C3       C      0.739033333333     0.824366666667     0.927633333333     0          
H1       H      0.731700000000     0.818400000000     0.934966666667     0          
O2       O      0.739366666667     0.878000000000     0.739366666667     0          
C3       C      0.739033333333     0.842300000000     0.739033333333     0          
H1       H      0.731700000000     0.848266666667     0.731700000000     0          
O2       O      0.878000000000     0.760633333333     0.906033333333     0          
C1       C      0.870433333333     0.750000000000     0.916666666667     0          
C2       C      0.851266666667     0.750000000000     0.916666666667     0          
C3       C      0.842300000000     0.760966666667     0.905700000000     0          
H1       H      0.848266666667     0.768300000000     0.898366666667     0          
O2       O      0.788666666667     0.906033333333     0.906033333333     0          
C1       C      0.796233333333     0.916666666667     0.916666666667     0          
C2       C      0.815400000000     0.916666666667     0.916666666667     0          
C3       C      0.824366666667     0.905700000000     0.905700000000     0          
H1       H      0.818400000000     0.898366666667     0.898366666667     0          
O2       O      0.878000000000     0.906033333333     0.760633333333     0          
C1       C      0.870433333333     0.916666666667     0.750000000000     0          
C2       C      0.851266666667     0.916666666667     0.750000000000     0          
C3       C      0.842300000000     0.905700000000     0.760966666667     0          
H1       H      0.848266666667     0.898366666667     0.768300000000     0          
O2       O      0.788666666667     0.760633333333     0.760633333333     0          
C1       C      0.796233333333     0.750000000000     0.750000000000     0          
C2       C      0.815400000000     0.750000000000     0.750000000000     0          
C3       C      0.824366666667     0.760966666667     0.760966666667     0          
H1       H      0.818400000000     0.768300000000     0.768300000000     0          
O2       O      0.878000000000     0.739366666667     0.739366666667     0          
C1       C      0.870433333333     0.750000000000     0.750000000000     0          
C2       C      0.851266666667     0.750000000000     0.750000000000     0          
C3       C      0.842300000000     0.739033333333     0.739033333333     0          
H1       H      0.848266666667     0.731700000000     0.731700000000     0          
O2       O      0.788666666667     0.927300000000     0.739366666667     0          
C1       C      0.796233333333     0.916666666667     0.750000000000     0          
C2       C      0.815400000000     0.916666666667     0.750000000000     0          
C3       C      0.824366666667     0.927633333333     0.739033333333     0          
H1       H      0.818400000000     0.934966666667     0.731700000000     0          
O2       O      0.878000000000     0.927300000000     0.927300000000     0          
C1       C      0.870433333333     0.916666666667     0.916666666667     0          
C2       C      0.851266666667     0.916666666667     0.916666666667     0          
C3       C      0.842300000000     0.927633333333     0.927633333333     0          
H1       H      0.848266666667     0.934966666667     0.934966666667     0          
O2       O      0.788666666667     0.739366666667     0.927300000000     0          
C1       C      0.796233333333     0.750000000000     0.916666666667     0          
C2       C      0.815400000000     0.750000000000     0.916666666667     0          
C3       C      0.824366666667     0.739033333333     0.927633333333     0          
H1       H      0.818400000000     0.731700000000     0.934966666667     0          
O2       O      0.788666666667     0.906033333333     0.760633333333     0          
C3       C      0.824366666667     0.905700000000     0.760966666667     0          
H1       H      0.818400000000     0.898366666667     0.768300000000     0          
O2       O      0.878000000000     0.760633333333     0.760633333333     0          
C3       C      0.842300000000     0.760966666667     0.760966666667     0          
H1       H      0.848266666667     0.768300000000     0.768300000000     0          
O2       O      0.788666666667     0.760633333333     0.906033333333     0          
C3       C      0.824366666667     0.760966666667     0.905700000000     0          
H1       H      0.818400000000     0.768300000000     0.898366666667     0          
O2       O      0.878000000000     0.906033333333     0.906033333333     0          
C3       C      0.842300000000     0.905700000000     0.905700000000     0          
H1       H      0.848266666667     0.898366666667     0.898366666667     0          
O2       O      0.788666666667     0.927300000000     0.927300000000     0          
C3       C      0.824366666667     0.927633333333     0.927633333333     0          
H1       H      0.818400000000     0.934966666667     0.934966666667     0          
O2       O      0.878000000000     0.739366666667     0.927300000000     0          
C3       C      0.842300000000     0.739033333333     0.927633333333     0          
H1       H      0.848266666667     0.731700000000     0.934966666667     0          
O2       O      0.788666666667     0.739366666667     0.739366666667     0          
C3       C      0.824366666667     0.739033333333     0.739033333333     0          
H1       H      0.818400000000     0.731700000000     0.731700000000     0          
O2       O      0.878000000000     0.927300000000     0.739366666667     0          
C3       C      0.842300000000     0.927633333333     0.739033333333     0          
H1       H      0.848266666667     0.934966666667     0.731700000000     0          


