
#######################################################################
#
#                 Cambridge Crystallographic Data Centre
#                                CCDC 
#
#######################################################################
#
# If this CIF has been generated from an entry in the Cambridge 
# Structural Database, then it will include bibliographic, chemical, 
# crystal, experimental, refinement or atomic coordinate data resulting 
# from the CCDC's data processing and validation procedures.
#
#######################################################################

data_CIGXIA
_chemical_name_common            MIL-100(Fe)
_chemical_formula_moiety         '(C54 H30 F3 Fe9 O45)n,37.5n(H2 O1)'
_chemical_name_systematic        
'catena-(hexakis(\m~6~-Benzene-1,3,5-tricarboxylato)-tris(\m~3~-oxo)-hexaaqua-trifluoro-nona-iron(iii) hydrate)'
_symmetry_cell_setting           cubic
_symmetry_space_group_name_H-M   'F d -3 m'
_symmetry_Int_Tables_number      227
_space_group_name_Hall           '-F 4vw 2vw 3'
loop_
_symmetry_equiv_pos_site_id
_symmetry_equiv_pos_as_xyz
1 x,y,z
2 -y,1/4+x,1/4+z
3 x,1/4-y,1/4-z
4 z,x,y
5 3/4-x,1/4-y,1/2+z
6 3/4+y,1/4+x,1/2-z
7 -x,1/4+z,1/4+y
8 3/4+y,-x,3/4+z
9 3/4-x,y,3/4-z
10 3/4-z,1/4-x,1/2+y
11 -y,-x,-z
12 3/4+x,-z,3/4+y
13 z,1/4-x,1/4-y
14 -x,-z,-y
15 3/4-z,x,3/4-y
16 3/4+x,1/4+z,1/2-y
17 y,z,x
18 3/4+z,-y,3/4+x
19 1/2-z,3/4+y,1/4+x
20 3/4+z,3/4+y,-x
21 1/2+y,3/4-z,1/4-x
22 -z,-y,-x
23 1/4-y,z,1/4-x
24 3/4-y,3/4-z,x
25 1/4+z,-y,1/4+x
26 x,1/2+y,1/2+z
27 -y,3/4+x,3/4+z
28 x,3/4-y,3/4-z
29 z,1/2+x,1/2+y
30 3/4-x,3/4-y,z
31 3/4+y,3/4+x,-z
32 -x,3/4+z,3/4+y
33 3/4+y,1/2-x,1/4+z
34 3/4-x,1/2+y,1/4-z
35 3/4-z,3/4-x,y
36 -y,1/2-x,1/2-z
37 3/4+x,1/2-z,1/4+y
38 z,3/4-x,3/4-y
39 -x,1/2-z,1/2-y
40 3/4-z,1/2+x,1/4-y
41 3/4+x,3/4+z,-y
42 y,1/2+z,1/2+x
43 3/4+z,1/2-y,1/4+x
44 1/2-z,1/4+y,3/4+x
45 3/4+z,1/4+y,1/2-x
46 1/2+y,1/4-z,3/4-x
47 -z,1/2-y,1/2-x
48 1/4-y,1/2+z,3/4-x
49 3/4-y,1/4-z,1/2+x
50 1/4+z,1/2-y,3/4+x
51 1/2+x,y,1/2+z
52 1/2-y,1/4+x,3/4+z
53 1/2+x,1/4-y,3/4-z
54 1/2+z,x,1/2+y
55 1/4-x,1/4-y,z
56 1/4+y,1/4+x,-z
57 1/2-x,1/4+z,3/4+y
58 1/4+y,-x,1/4+z
59 1/4-x,y,1/4-z
60 1/4-z,1/4-x,y
61 1/2-y,-x,1/2-z
62 1/4+x,-z,1/4+y
63 1/2+z,1/4-x,3/4-y
64 1/2-x,-z,1/2-y
65 1/4-z,x,1/4-y
66 1/4+x,1/4+z,-y
67 1/2+y,z,1/2+x
68 -z,3/4+y,3/4+x
69 1/4+z,3/4+y,1/2-x
70 y,3/4-z,3/4-x
71 1/2-z,-y,1/2-x
72 3/4-y,z,3/4-x
73 1/4-y,3/4-z,1/2+x
74 1/2+x,1/2+y,z
75 1/2-y,3/4+x,1/4+z
76 1/2+x,3/4-y,1/4-z
77 1/2+z,1/2+x,y
78 1/4-x,3/4-y,1/2+z
79 1/4+y,3/4+x,1/2-z
80 1/2-x,3/4+z,1/4+y
81 1/4+y,1/2-x,3/4+z
82 1/4-x,1/2+y,3/4-z
83 1/4-z,3/4-x,1/2+y
84 1/2-y,1/2-x,-z
85 1/4+x,1/2-z,3/4+y
86 1/2+z,3/4-x,1/4-y
87 1/2-x,1/2-z,-y
88 1/4-z,1/2+x,3/4-y
89 1/4+x,3/4+z,1/2-y
90 1/2+y,1/2+z,x
91 -z,1/4+y,1/4+x
92 1/4+z,1/4+y,-x
93 y,1/4-z,1/4-x
94 1/2-z,1/2-y,-x
95 3/4-y,1/2+z,1/4-x
96 1/4-y,1/4-z,x
97 -x,-y,-z
98 y,3/4-x,3/4-z
99 -x,3/4+y,3/4+z
100 -z,-x,-y
101 1/4+x,3/4+y,1/2-z
102 1/4-y,3/4-x,1/2+z
103 x,3/4-z,3/4-y
104 1/4-y,x,1/4-z
105 1/4+x,-y,1/4+z
106 1/4+z,3/4+x,1/2-y
107 y,x,z
108 1/4-x,z,1/4-y
109 -z,3/4+x,3/4+y
110 x,z,y
111 1/4+z,-x,1/4+y
112 1/4-x,3/4-z,1/2+y
113 -y,-z,-x
114 1/4-z,y,1/4-x
115 1/2+z,1/4-y,3/4-x
116 1/4-z,1/4-y,x
117 1/2-y,1/4+z,3/4+x
118 z,y,x
119 3/4+y,-z,3/4+x
120 1/4+y,1/4+z,-x
121 3/4-z,y,3/4-x
122 -x,1/2-y,1/2-z
123 y,1/4-x,1/4-z
124 -x,1/4+y,1/4+z
125 -z,1/2-x,1/2-y
126 1/4+x,1/4+y,-z
127 1/4-y,1/4-x,z
128 x,1/4-z,1/4-y
129 1/4-y,1/2+x,3/4-z
130 1/4+x,1/2-y,3/4+z
131 1/4+z,1/4+x,-y
132 y,1/2+x,1/2+z
133 1/4-x,1/2+z,3/4-y
134 -z,1/4+x,1/4+y
135 x,1/2+z,1/2+y
136 1/4+z,1/2-x,3/4+y
137 1/4-x,1/4-z,y
138 -y,1/2-z,1/2-x
139 1/4-z,1/2+y,3/4-x
140 1/2+z,3/4-y,1/4-x
141 1/4-z,3/4-y,1/2+x
142 1/2-y,3/4+z,1/4+x
143 z,1/2+y,1/2+x
144 3/4+y,1/2-z,1/4+x
145 1/4+y,3/4+z,1/2-x
146 3/4-z,1/2+y,1/4-x
147 1/2-x,-y,1/2-z
148 1/2+y,3/4-x,1/4-z
149 1/2-x,3/4+y,1/4+z
150 1/2-z,-x,1/2-y
151 3/4+x,3/4+y,-z
152 3/4-y,3/4-x,z
153 1/2+x,3/4-z,1/4-y
154 3/4-y,x,3/4-z
155 3/4+x,-y,3/4+z
156 3/4+z,3/4+x,-y
157 1/2+y,x,1/2+z
158 3/4-x,z,3/4-y
159 1/2-z,3/4+x,1/4+y
160 1/2+x,z,1/2+y
161 3/4+z,-x,3/4+y
162 3/4-x,3/4-z,y
163 1/2-y,-z,1/2-x
164 z,1/4-y,1/4-x
165 3/4-z,1/4-y,1/2+x
166 -y,1/4+z,1/4+x
167 1/2+z,y,1/2+x
168 1/4+y,-z,1/4+x
169 3/4+y,1/4+z,1/2-x
170 1/2-x,1/2-y,-z
171 1/2+y,1/4-x,3/4-z
172 1/2-x,1/4+y,3/4+z
173 1/2-z,1/2-x,-y
174 3/4+x,1/4+y,1/2-z
175 3/4-y,1/4-x,1/2+z
176 1/2+x,1/4-z,3/4-y
177 3/4-y,1/2+x,1/4-z
178 3/4+x,1/2-y,1/4+z
179 3/4+z,1/4+x,1/2-y
180 1/2+y,1/2+x,z
181 3/4-x,1/2+z,1/4-y
182 1/2-z,1/4+x,3/4+y
183 1/2+x,1/2+z,y
184 3/4+z,1/2-x,1/4+y
185 3/4-x,1/4-z,1/2+y
186 1/2-y,1/2-z,-x
187 z,3/4-y,3/4-x
188 3/4-z,3/4-y,x
189 -y,3/4+z,3/4+x
190 1/2+z,1/2+y,x
191 1/4+y,1/2-z,3/4+x
192 3/4+y,3/4+z,-x
_cell_length_a                   73.34019
_cell_length_b                   73.34019
_cell_length_c                   73.34019
_cell_angle_alpha                90
_cell_angle_beta                 90
_cell_angle_gamma                90
_cell_volume                     394481
_cell_formula_units_Z            96
loop_
_atom_site_label
_atom_site_type_symbol
_atom_site_fract_x
_atom_site_fract_y
_atom_site_fract_z
O2 O 0.2775(8) 0.0798(10) 0.9725(8)
O3 O 0.1950(16) 0.87500 0.87500
O4 O 0.2388(7) 0.9692(7) 0.1154(8)
O5 O 0.9751(7) 0.1927(8) 0.9133(7)
O6 O 0.0578(10) 0.2815(7) 0.7815(7)
O7 O 0.0518(7) 0.0888(7) 0.8535(7)
O8 O 0.1947(8) 0.9755(7) 0.1332(7)
O9 O 0.1081(10) 0.9277(7) 0.9277(7)
O10 O 0.0754(7) 0.1049(7) 0.0287(7)
O11 O 0.3081(8) 0.0789(10) 0.9419(8)
O12 O 0.2250(8) 1.0250(8) 0.1706(10)
O13 O 0.0268(10) 0.9438(7) 0.9440(7)
O14 O 0.0668(8) 0.9603(7) 0.9068(7)
O15 O 0.1016(15) 0.1484(15) 0.782(2)
O16 O 0.1096(10) 1.0155(7) 0.7345(7)
O17 O 0.2399(7) 1.0101(7) 0.1450(10)
O18 O 0.1480(10) 1.0386(7) 0.7114(7)
O19 O 0.1185(7) 0.9860(7) 0.9298(7)
O20 O 0.3288(8) 0.0195(10) 0.9212(8)
O21 O 0.0388(9) 0.2475(7) 0.7475(7)
O22 O 0.2234(7) 0.9704(8) 0.8423(7)
O23 O 0.2964(8) 0.0454(12) 0.9536(8)
O24 O 0.1104(4) 0.1396(4) 0.9605(9)
O25 O 0.2703(8) 0.0196(7) 0.9327(7)
O26 O 0.1833(10) 1.0667(10) 0.1833(10)
O27 O 0.0540(7) 0.9460(7) 1.00000
O28 O 0.3121(7) -0.01997 0.9379(7)
Fe1 Fe 0.16042(17) 0.08958(17) 0.0572(2)
Fe2 Fe 0.12500 0.1250(2) -0.09480
Fe3 Fe 0.14095(16) 0.14095(16) -0.1358(2)
Fe4 Fe 0.18158(16) 0.06841(16) -0.0360(2)
Fe5 Fe 0.22594(19) 0.05702(18) -0.04760(17)
Fe6 Fe 0.07612(14) 0.25000 -0.17388(14)
Fe7 Fe 0.08922(18) 0.26343(17) -0.13292(17)
O29 O 0.1700(11) 0.0800(11) 0.0800(11)
O30 O 0.12500 0.1250(4) -0.12160
O31 O 0.1996(3) 0.0504(3) -0.0436(12)
O32 O 0.0945(2) 0.25000 -0.1555(2)
O33 O 0.1829(4) 0.0926(3) 0.0460(6)
O34 O 0.1630(4) 0.1155(6) 0.0660(5)
O35 O 0.1505(3) 0.1282(3) -0.0905(7)
O36 O 0.1218(6) 0.1494(4) -0.1503(5)
O37 O 0.1604(3) 0.1332(4) -0.1205(5)
O38 O 0.1936(3) 0.0793(5) -0.0164(7)
O39 O 0.1863(6) 0.0887(5) -0.0518(5)
O40 O 0.2199(6) 0.0729(5) -0.0280(7)
O41 O 0.2370(3) 0.0353(7) -0.0359(5)
O42 O 0.2268(5) 0.0442(5) -0.0715(6)
O43 O 0.2140(8) 0.0791(4) -0.0576(5)
O44 O 0.0563(3) 0.2436(7) -0.1575(6)
O45 O 0.0786(8) 0.2228(3) -0.1781(5)
O46 O 0.0632(4) 0.2568(5) -0.1317(4)
O47 O 0.1056(6) 0.2148(4) -0.1707(3)
O48 O 0.1123(3) 0.2736(6) -0.1300(6)
O49 O 0.1000(6) 0.2425(5) -0.1215(6)
O50 O 0.1503(5) 0.0997(5) 0.0335(4)
O51 O 0.12500 0.1250(4) -0.06770
O52 O 0.1560(3) 0.1560(3) -0.15000
O53 O 0.1644(3) 0.0856(3) -0.0234(5)
O54 O 0.2507(6) 0.0665(7) -0.0510(4)
O55 O 0.0574(3) 0.25000 -0.1928(3)
O56 O 0.0863(5) 0.2745(5) -0.1089(3)
C1 C 0.2422(6) 0.0078(6) -0.0165(9)
C2 C 0.2604(4) 0.0133(5) -0.0104(4)
C3 C 0.2321(5) 0.0179(8) -0.0317(5)
C4 C 0.1472(10) 0.1472(10) 0.0786(11)
C5 C 0.1634(10) 0.1393(10) 0.0866(11)
C6 C 0.1715(8) 0.1236(8) 0.0785(7)
C7 C 0.0991(10) 0.1760(3) -0.1704(3)
C8 C 0.0844(9) 0.1897(3) -0.1733(2)
C9 C 0.1071(3) 0.1429(3) -0.1565(9)
C10 C 0.0927(4) 0.1573(4) -0.1648(12)
C11 C 0.0664(7) 0.1836(7) -0.1786(14)
C12 C 0.0898(12) 0.2103(2) -0.1741(4)
C13 C 0.2075(3) 0.0931(6) 0.0176(10)
C14 C 0.2195(4) 0.0847(5) 0.0041(11)
C15 C 0.19811(17) 0.09780(17) 0.0519(6)
C16 C 0.2129(2) 0.0930(2) 0.0371(11)
C17 C 0.2398(5) 0.0809(5) 0.0102(15)
C18 C 0.2106(2) 0.0789(5) -0.0146(12)
C19 C 0.2163(5) 0.1023(3) -0.0897(9)
C20 C 0.1967(7) 0.1220(4) -0.1116(8)
C21 C 0.1992(6) 0.0999(4) -0.0782(7)
C22 C 0.1809(4) 0.1183(3) -0.0991(8)
C23 C 0.1830(4) 0.1112(6) -0.0806(9)
C24 C 0.2133(4) 0.1112(4) -0.1082(9)
C25 C 0.1629(4) 0.1267(5) -0.1036(10)
C26 C 0.2283(6) 0.1108(6) -0.1230(9)
C27 C 0.1995(6) 0.0881(5) -0.0622(9)
C28 C 0.2247(11) 0.0253(11) -0.1418(5)
C29 C 0.2112(2) 0.0136(9) -0.1099(6)
C30 C 0.2108(2) 0.0143(7) -0.1306(8)
C31 C 0.2199(7) 0.0301(7) -0.1013(3)
C32 C 0.2169(11) 0.0331(11) -0.0805(4)
C33 C 0.0527(3) 0.2471(8) -0.1406(7)
Fe1GB Fe 0.1928(2) 0.08958(17) 0.08958(17)
Fe1V Fe 0.16042(17) 0.0572(2) 0.08958(17)
Fe1BB Fe 0.08958(17) 0.16042(17) 0.0572(2)
Fe1NC Fe 0.08958(17) 0.1928(2) 0.08958(17)
Fe1LB Fe 0.1928(2) 0.16042(17) 0.16042(17)
Fe1QC Fe 0.16042(17) 0.1928(2) 0.16042(17)
Fe3BB Fe 0.10905(16) 0.10905(16) -0.1358(2)
Fe5VD Fe 0.19298(18) 0.02406(19) -0.04760(17)
Fe5GB Fe 0.29760(17) 0.02406(19) 0.05702(18)
Fe5ID Fe 0.29760(17) 0.05702(18) 0.02406(19)
Fe5V Fe 0.19298(18) -0.04760(17) 0.02406(19)
Fe5ED Fe 0.22594(19) -0.04760(17) 0.05702(18)
Fe6BB Fe 0.17388(14) 0.00000 -0.17388(14)
Fe7WA Fe 0.11708(17) 0.23657(17) -0.16078(18)
Fe7BB Fe 0.16078(18) -0.01343(17) -0.13292(17)
Fe7LD Fe 0.23657(17) 0.11708(17) -0.16078(18)
Fe7BD Fe 0.26343(17) 0.08922(18) -0.13292(17)
Fe7OB Fe 0.13292(17) 0.01343(17) -0.16078(18)
O29C O 0.0800(11) 0.1700(11) 0.0800(11)
O29B O 0.1700(11) 0.1700(11) 0.1700(11)
O31GB O 0.2936(12) 0.0504(3) 0.0504(3)
O32BB O 0.1555(2) 0.00000 -0.1555(2)
O33VD O 0.1574(3) 0.0671(4) 0.0460(6)
O33ID O 0.2040(6) 0.0926(3) 0.0671(4)
O33GB O 0.2040(6) 0.0671(4) 0.0926(3)
O33V O 0.1574(3) 0.0460(6) 0.0671(4)
O33ED O 0.1829(4) 0.0460(6) 0.0926(3)
O33BB O 0.0671(4) 0.1574(3) 0.0460(6)
O33BD O 0.0926(3) 0.1829(4) 0.0460(6)
O33NC O 0.0926(3) 0.2040(6) 0.0671(4)
O33FE O 0.0671(4) 0.2040(6) 0.0926(3)
O33LB O 0.2040(6) 0.1829(4) 0.1574(3)
O33KD O 0.2040(6) 0.1574(3) 0.1829(4)
O33QC O 0.1574(3) 0.2040(6) 0.1829(4)
O33WD O 0.1829(4) 0.2040(6) 0.1574(3)
O34VD O 0.1345(6) 0.0870(4) 0.0660(5)
O34ID O 0.1840(5) 0.1155(6) 0.0870(4)
O34NC O 0.1155(6) 0.1840(5) 0.0870(4)
O34BD O 0.1155(6) 0.1630(4) 0.0660(5)
O34LB O 0.1840(5) 0.1630(4) 0.1345(6)
O34WD O 0.1630(4) 0.1840(5) 0.1345(6)
O34GB O 0.1840(5) 0.0870(4) 0.1155(6)
O34V O 0.1345(6) 0.0660(5) 0.0870(4)
O34ED O 0.1630(4) 0.0660(5) 0.1155(6)
O34BB O 0.0870(4) 0.1345(6) 0.0660(5)
O34FE O 0.0870(4) 0.1840(5) 0.1155(6)
O34KD O 0.1840(5) 0.1345(6) 0.1630(4)
O34QC O 0.1345(6) 0.1840(5) 0.1630(4)
O35BB O 0.0995(3) 0.1218(3) -0.0905(7)
O35BD O 0.1282(3) 0.1505(3) -0.0905(7)
O35VD O 0.1218(3) 0.0995(3) -0.0905(7)
O36BD O 0.1494(4) 0.1218(6) -0.1503(5)
O36VD O 0.1006(4) 0.1282(6) -0.1503(5)
O36BB O 0.1282(6) 0.1006(4) -0.1503(5)
O37BD O 0.1332(4) 0.1604(3) -0.1205(5)
O37BB O 0.0896(3) 0.1168(4) -0.1205(5)
O37VD O 0.1168(4) 0.0896(3) -0.1205(5)
O38VD O 0.1707(5) 0.0564(3) -0.0164(7)
O39VD O 0.1613(5) 0.0637(6) -0.0518(5)
O40VD O 0.1771(5) 0.0301(6) -0.0280(7)
O40GB O 0.2780(7) 0.0301(6) 0.0729(5)
O40ID O 0.2780(7) 0.0729(5) 0.0301(6)
O41VD O 0.2147(7) 0.0130(3) -0.0359(5)
O41GB O 0.2859(5) 0.0130(3) 0.0353(7)
O41ID O 0.2859(5) 0.0353(7) 0.0130(3)
O41V O 0.2147(7) -0.0359(5) 0.0130(3)
O41ED O 0.2370(3) -0.0359(5) 0.0353(7)
O42VD O 0.2058(5) 0.0232(5) -0.0715(6)
O42GB O 0.3215(6) 0.0232(5) 0.0442(5)
O42ID O 0.3215(6) 0.0442(5) 0.0232(5)
O43VD O 0.1709(4) 0.0360(8) -0.0576(5)
O43GB O 0.3076(5) 0.0360(8) 0.0791(4)
O43ID O 0.3076(5) 0.0791(4) 0.0360(8)
O44WA O 0.0925(6) 0.2564(7) -0.1937(3)
O44BB O 0.1937(3) 0.0064(7) -0.1575(6)
O44OB O 0.1575(6) -0.0064(7) -0.1937(3)
O45WA O 0.0719(5) 0.2772(3) -0.1714(8)
O45BB O 0.1714(8) 0.0272(3) -0.1781(5)
O45OB O 0.1781(5) -0.0272(3) -0.1714(8)
O46BB O 0.1868(4) -0.0068(5) -0.1317(4)
O46WA O 0.1183(4) 0.2432(5) -0.1868(4)
O47WA O 0.0793(3) 0.2852(4) -0.1444(6)
O47OB O 0.1707(3) -0.0352(4) -0.1444(6)
O48LD O 0.2264(6) 0.1200(6) -0.1377(3)
O48WA O 0.1200(6) 0.2264(6) -0.1377(3)
O48BB O 0.1377(3) -0.0236(6) -0.1300(6)
O49BD O 0.2425(5) 0.1000(6) -0.1215(6)
O49WA O 0.1285(6) 0.2575(5) -0.1500(6)
O49BB O 0.1500(6) 0.0075(5) -0.1215(6)
O50GB O 0.2165(4) 0.0997(5) 0.0997(5)
O50V O 0.1503(5) 0.0335(4) 0.0997(5)
O50BB O 0.0997(5) 0.1503(5) 0.0335(4)
O50NC O 0.0997(5) 0.2165(4) 0.0997(5)
O50LB O 0.2165(4) 0.1503(5) 0.1503(5)
O50QC O 0.1503(5) 0.2165(4) 0.1503(5)
O52BB O 0.0940(3) 0.0940(3) -0.15000
O54VD O 0.1835(7) -0.0007(6) -0.0510(4)
O54GB O 0.3010(4) -0.0007(6) 0.0665(7)
O54ID O 0.3010(4) 0.0665(7) -0.0007(6)
O55BB O 0.1926(3) 0.00000 -0.1928(3)
O56WA O 0.1411(3) 0.2255(5) -0.1637(5)
O56BB O 0.1637(5) -0.0245(5) -0.1089(3)
C1GB C 0.2665(9) 0.0078(6) 0.0078(6)
C1V C 0.2422(6) -0.0165(9) 0.0078(6)
C2V C 0.2367(5) -0.0104(4) -0.0104(4)
C2GB C 0.2604(4) -0.0104(4) 0.0133(5)
C3GB C 0.2817(5) 0.0179(5) 0.0179(8)
C3V C 0.2321(8) -0.0317(5) 0.0179(5)
C4LB C 0.1714(11) 0.1472(10) 0.1028(10)
C4NC C 0.1472(10) 0.1714(11) 0.1028(10)
C5NC C 0.1393(10) 0.1634(11) 0.0866(10)
C5LB C 0.1634(11) 0.1634(10) 0.1107(10)
C6NC C 0.1236(8) 0.1715(7) 0.0785(8)
C6LB C 0.1715(7) 0.1715(8) 0.1264(8)
C6V C 0.1264(8) 0.0785(7) 0.0785(8)
C7VD C 0.0740(3) 0.1509(10) -0.1704(3)
C8VD C 0.0603(3) 0.1656(9) -0.1733(2)
C9BB C 0.1429(3) 0.1071(3) -0.1565(9)
C12WA C 0.0759(4) 0.2897(2) -0.1602(12)
C12VD C 0.0397(2) 0.1602(12) -0.1741(4)
C12BB C 0.1602(12) 0.0397(2) -0.1741(4)
C12OB C 0.1741(4) -0.0397(2) -0.1602(12)
C13ID C 0.2324(10) 0.0931(6) 0.0425(3)
C14ID C 0.2459(11) 0.0847(5) 0.0305(4)
C15V C 0.15220(17) 0.0519(6) 0.05189(17)
C18VD C 0.1711(5) 0.0394(2) -0.0146(12)
C18ID C 0.2646(12) 0.0789(5) 0.0394(2)
C19BD C 0.1023(3) 0.2163(5) -0.0897(9)
C20BD C 0.1220(4) 0.1967(7) -0.1116(8)
C21BD C 0.0999(4) 0.1992(6) -0.0782(7)
C22BD C 0.1183(3) 0.1809(4) -0.0991(8)
C23BD C 0.1112(6) 0.1830(4) -0.0806(9)
C24BD C 0.1112(4) 0.2133(4) -0.1082(9)
C24EE C 0.1418(9) 0.2867(4) -0.1388(4)
C25BB C 0.0871(4) 0.1233(5) -0.1036(10)
C25BD C 0.1267(5) 0.1629(4) -0.1036(10)
C25VD C 0.1233(5) 0.0871(4) -0.1036(10)
C26EE C 0.1270(9) 0.2717(6) -0.1392(6)
C26BD C 0.1108(6) 0.2283(6) -0.1230(9)
C27VD C 0.1619(5) 0.0505(6) -0.0622(9)
C27BD C 0.0881(5) 0.1995(6) -0.0622(9)
C28BB C 0.0253(11) 0.2247(11) -0.1418(5)
C29VD C 0.2364(9) 0.0388(2) -0.1099(6)
C29BB C 0.0388(2) 0.2364(9) -0.1099(6)
C30VD C 0.2357(7) 0.0392(2) -0.1306(8)
C30BB C 0.0392(2) 0.2357(7) -0.1306(8)
C33BB C 0.1973(3) 0.0029(8) -0.1406(7)
C33WA C 0.1094(7) 0.2529(8) -0.1973(3)
C33BD C 0.2471(8) 0.0527(3) -0.1406(7)
C33OB C 0.1406(7) -0.0029(8) -0.1973(3)
O1 O 0.12500 0.12500 -0.0087(14)
O57? O 0.0918(15) 0.1582(15) 0.787(2)
loop_
_geom_bond_atom_site_label_1
_geom_bond_atom_site_label_2
_geom_bond_site_symmetry_1
_geom_bond_site_symmetry_2
Fe1 O29 1_555 1_555
Fe2 O30 1_555 1_555
Fe3 O30 1_555 1_555
Fe4 O31 1_555 1_555
Fe5 O31 1_555 1_555
Fe6 O32 1_555 1_555
Fe7 O32 1_555 1_555
O29 Fe1GB 1_555 1_555
O30 Fe3BB 1_555 1_555
O31 Fe5VD 1_555 1_555
O32 Fe7WA 1_555 1_555
O33 Fe1 1_555 1_555
O34 Fe1 1_555 1_555
O35 Fe2 1_555 1_555
O36 Fe3 1_555 1_555
O37 Fe3 1_555 1_555
O38 Fe4 1_555 1_555
O39 Fe4 1_555 1_555
O40 Fe5 1_555 1_555
O41 Fe5 1_555 1_555
O42 Fe5 1_555 1_555
O43 Fe5 1_555 1_555
O44 Fe6 1_555 1_555
O45 Fe6 1_555 1_555
O46 Fe7 1_555 1_555
O47 C12 1_555 1_555
O48 Fe7 1_555 1_555
O49 Fe7 1_555 1_555
O50 Fe1 1_555 1_555
O51 Fe2 1_555 1_555
O52 Fe3 1_555 1_555
O53 Fe4 1_555 1_555
O54 Fe5 1_555 1_555
O55 Fe6 1_555 1_555
O56 Fe7 1_555 1_555
C1 C2 1_555 1_555
C2 C1GB 1_555 1_555
C3 O41 1_555 1_555
C4 C5 1_555 1_555
C5 C6 1_555 1_555
C6 O34 1_555 1_555
C7 C8 1_555 1_555
C8 C11 1_555 1_555
C9 O36 1_555 1_555
C10 C7 1_555 1_555
C11 C8VD 1_555 1_555
C12 O45 1_555 1_555
C13 C14 1_555 1_555
C14 C17 1_555 1_555
C15 O33 1_555 1_555
C16 C13 1_555 1_555
C17 C14ID 1_555 1_555
C18 O38 1_555 1_555
C19 C21 1_555 1_555
C20 C22 1_555 1_555
C21 C23 1_555 1_555
C22 C23 1_555 1_555
C24 C19 1_555 1_555
C25 O35 1_555 1_555
C26 C24 1_555 1_555
C27 O39 1_555 1_555
C28 C30 1_555 1_555
C29 C30 1_555 1_555
C30 C33BB 1_555 1_555
C31 C29 1_555 1_555
C32 O42 1_555 1_555
C33 O44 1_555 1_555
Fe1GB O33ID 1_555 1_555
Fe1V O29 1_555 1_555
Fe1BB O29C 1_555 1_555
Fe1NC O29C 1_555 1_555
Fe1LB O29B 1_555 1_555
Fe1QC O29B 1_555 1_555
Fe3BB O36VD 1_555 1_555
Fe5VD O40VD 1_555 1_555
Fe5GB O31GB 1_555 1_555
Fe5ID O31GB 1_555 1_555
Fe5V O41V 1_555 1_555
Fe5ED O41ED 1_555 1_555
Fe6BB O32BB 1_555 1_555
Fe7WA O47 1_555 1_555
Fe7BB O32BB 1_555 1_555
Fe7LD O48LD 1_555 1_555
Fe7BD O49BD 1_555 1_555
Fe7OB O32BB 1_555 1_555
O33VD Fe1 1_555 1_555
O33ID C15 1_555 1_555
O33GB Fe1GB 1_555 1_555
O33V Fe1V 1_555 1_555
O33ED Fe1V 1_555 1_555
O33BB Fe1BB 1_555 1_555
O33BD Fe1BB 1_555 1_555
O33NC Fe1NC 1_555 1_555
O33FE Fe1NC 1_555 1_555
O33LB Fe1LB 1_555 1_555
O33KD Fe1LB 1_555 1_555
O33QC Fe1QC 1_555 1_555
O33WD Fe1QC 1_555 1_555
O34VD Fe1 1_555 1_555
O34ID C6 1_555 1_555
O34NC Fe1NC 1_555 1_555
O34BD Fe1BB 1_555 1_555
O34LB Fe1LB 1_555 1_555
O34WD Fe1QC 1_555 1_555
O34GB Fe1GB 1_555 1_555
O34V Fe1V 1_555 1_555
O34ED Fe1V 1_555 1_555
O34BB Fe1BB 1_555 1_555
O34FE Fe1NC 1_555 1_555
O34KD Fe1LB 1_555 1_555
O34QC Fe1QC 1_555 1_555
O35BB Fe2 1_555 1_555
O35BD Fe2 1_555 1_555
O35VD Fe2 1_555 1_555
O36BD Fe3 1_555 1_555
O36VD C9 1_555 1_555
O36BB Fe3BB 1_555 1_555
O37BD Fe3 1_555 1_555
O37BB Fe3BB 1_555 1_555
O37VD Fe3BB 1_555 1_555
O38VD Fe4 1_555 1_555
O39VD Fe4 1_555 1_555
O40GB Fe5GB 1_555 1_555
O40ID Fe5ID 1_555 1_555
O41VD C3 1_555 1_555
O41GB Fe5GB 1_555 1_555
O41ID Fe5ID 1_555 1_555
O41V C3V 1_555 1_555
O41ED C3V 1_555 1_555
O42VD C32 1_555 1_555
O42GB Fe5GB 1_555 1_555
O42ID Fe5ID 1_555 1_555
O43VD Fe5VD 1_555 1_555
O43GB Fe5GB 1_555 1_555
O43ID Fe5ID 1_555 1_555
O44WA Fe6 1_555 1_555
O44BB Fe6BB 1_555 1_555
O44OB Fe6BB 1_555 1_555
O45WA Fe6 1_555 1_555
O45BB Fe6BB 1_555 1_555
O45OB Fe6BB 1_555 1_555
O46BB Fe7BB 1_555 1_555
O46WA Fe7WA 1_555 1_555
O47WA Fe7 1_555 1_555
O47OB Fe7BB 1_555 1_555
O48LD C26 1_555 1_555
O48WA Fe7WA 1_555 1_555
O48BB Fe7BB 1_555 1_555
O49BD C26 1_555 1_555
O49WA Fe7WA 1_555 1_555
O49BB Fe7BB 1_555 1_555
O50GB Fe1GB 1_555 1_555
O50V Fe1V 1_555 1_555
O50BB Fe1BB 1_555 1_555
O50NC Fe1NC 1_555 1_555
O50LB Fe1LB 1_555 1_555
O50QC Fe1QC 1_555 1_555
O52BB Fe3BB 1_555 1_555
O54VD Fe5VD 1_555 1_555
O54GB Fe5GB 1_555 1_555
O54ID Fe5ID 1_555 1_555
O55BB Fe6BB 1_555 1_555
O56WA Fe7WA 1_555 1_555
O56BB Fe7BB 1_555 1_555
C1GB C2GB 1_555 1_555
C1V C2V 1_555 1_555
C2V C1 1_555 1_555
C2GB C1V 1_555 1_555
C3GB O41GB 1_555 1_555
C3V C1V 1_555 1_555
C4LB C5 1_555 1_555
C4NC C5NC 1_555 1_555
C5NC C4 1_555 1_555
C5LB C4LB 1_555 1_555
C6NC O34NC 1_555 1_555
C6LB O34LB 1_555 1_555
C6V O34VD 1_555 1_555
C7VD C10 1_555 1_555
C8VD C7VD 1_555 1_555
C9BB O36BD 1_555 1_555
C12WA O45WA 1_555 1_555
C12VD C8VD 1_555 1_555
C12BB O45BB 1_555 1_555
C12OB O45OB 1_555 1_555
C13ID C16 1_555 1_555
C14ID C13ID 1_555 1_555
C15V O33VD 1_555 1_555
C18VD O38VD 1_555 1_555
C18ID C14ID 1_555 1_555
C19BD C21BD 1_555 1_555
C20BD C22BD 1_555 1_555
C21BD C23BD 1_555 1_555
C22BD C23BD 1_555 1_555
C24BD C19BD 1_555 1_555
C24EE C26EE 1_555 1_555
C25BB O35BB 1_555 1_555
C25BD O35BD 1_555 1_555
C25VD O35VD 1_555 1_555
C26EE O48 1_555 1_555
C26BD O49 1_555 1_555
C27VD O39VD 1_555 1_555
C27BD C21BD 1_555 1_555
C28BB C30BB 1_555 1_555
C29VD C31 1_555 1_555
C29BB C30BB 1_555 1_555
C30VD C28 1_555 1_555
C30BB C33 1_555 1_555
C33BB O44BB 1_555 1_555
C33WA O44WA 1_555 1_555
C33BD C30VD 1_555 1_555
C33OB O44OB 1_555 1_555
O37 C25 1_555 1_555
O40 C18 1_555 1_555
O43 C27 1_555 1_555
O46 C33 1_555 1_555
C1 C3 1_555 1_555
C8 C12 1_555 1_555
C9 C10 1_555 1_555
C14 C18 1_555 1_555
C15 C16 1_555 1_555
C20 C24 1_555 1_555
C21 C27 1_555 1_555
C22 C25 1_555 1_555
C31 C32 1_555 1_555
Fe1GB O34ID 1_555 1_555
Fe5VD O41VD 1_555 1_555
Fe5VD O42VD 1_555 1_555
O34BD C6NC 1_555 1_555
O34WD C6LB 1_555 1_555
O37BD C25BD 1_555 1_555
O41ID C3GB 1_555 1_555
O46BB C33BB 1_555 1_555
O47WA C12WA 1_555 1_555
O48WA C26BD 1_555 1_555
O49WA C26EE 1_555 1_555
C1GB C3GB 1_555 1_555
C4NC C5LB 1_555 1_555
C5NC C6NC 1_555 1_555
C5LB C6LB 1_555 1_555
C20BD C24BD 1_555 1_555
C22BD C25BD 1_555 1_555
C24BD C26BD 1_555 1_555
C29VD C30VD 1_555 1_555

#END
