
#######################################################################
#
#                 Cambridge Crystallographic Data Centre
#                                CCDC 
#
#######################################################################
#
# If this CIF has been generated from an entry in the Cambridge 
# Structural Database, then it will include bibliographic, chemical, 
# crystal, experimental, refinement or atomic coordinate data resulting 
# from the CCDC's data processing and validation procedures.
#
#######################################################################

data_FAWCEN
_chemical_name_common            ZIF-8
_chemical_formula_moiety         '(C48 H60 N24 Zn6)n,8n(H2 O1)'
_chemical_name_systematic        
'catena-[dodecakis(\m~2~-2-Methylimidazolyl)-hexa-zinc(ii) octahydrate]'
_symmetry_cell_setting           cubic
_symmetry_space_group_name_H-M   'I -4 3 m'
_symmetry_Int_Tables_number      217
_space_group_name_Hall           'I -4 2 3'
loop_
_symmetry_equiv_pos_site_id
_symmetry_equiv_pos_as_xyz
1 x,y,z
2 -x,-y,z
3 -x,y,-z
4 x,-y,-z
5 z,x,y
6 z,-x,-y
7 -z,-x,y
8 -z,x,-y
9 y,z,x
10 -y,z,-x
11 y,-z,-x
12 -y,-z,x
13 y,x,z
14 -y,-x,z
15 y,-x,-z
16 -y,x,-z
17 x,z,y
18 -x,z,-y
19 -x,-z,y
20 x,-z,-y
21 z,y,x
22 z,-y,-x
23 -z,y,-x
24 -z,-y,x
25 1/2+x,1/2+y,1/2+z
26 1/2-x,1/2-y,1/2+z
27 1/2-x,1/2+y,1/2-z
28 1/2+x,1/2-y,1/2-z
29 1/2+z,1/2+x,1/2+y
30 1/2+z,1/2-x,1/2-y
31 1/2-z,1/2-x,1/2+y
32 1/2-z,1/2+x,1/2-y
33 1/2+y,1/2+z,1/2+x
34 1/2-y,1/2+z,1/2-x
35 1/2+y,1/2-z,1/2-x
36 1/2-y,1/2-z,1/2+x
37 1/2+y,1/2+x,1/2+z
38 1/2-y,1/2-x,1/2+z
39 1/2+y,1/2-x,1/2-z
40 1/2-y,1/2+x,1/2-z
41 1/2+x,1/2+z,1/2+y
42 1/2-x,1/2+z,1/2-y
43 1/2-x,1/2-z,1/2+y
44 1/2+x,1/2-z,1/2-y
45 1/2+z,1/2+y,1/2+x
46 1/2+z,1/2-y,1/2-x
47 1/2-z,1/2+y,1/2-x
48 1/2-z,1/2-y,1/2+x
_cell_length_a                   16.8509(3)
_cell_length_b                   16.8509(3)
_cell_length_c                   16.8509(3)
_cell_angle_alpha                90
_cell_angle_beta                 90
_cell_angle_gamma                90
_cell_volume                     4784.86
_cell_formula_units_Z            2
loop_
_atom_site_label
_atom_site_type_symbol
_atom_site_fract_x
_atom_site_fract_y
_atom_site_fract_z
Zn1 Zn 0.5000 0.0000 -0.2500
C1 C 0.5053(3) 0.1240(10) -0.1240(3)
N1 N 0.4643(3) 0.0883(4) -0.1827(4)
C2 C 0.3912(5) 0.1276(4) -0.1840(6)
H1 H 0.3494 0.1165 -0.2183
C3 C 0.5861(6) 0.0985(6) -0.0985(6)
Zn1R Zn 0.5000 0.2500 0.0000
Zn1P Zn 0.5000 -0.2500 0.0000
Zn1T Zn 0.7500 0.0000 -0.5000
Zn1V Zn 0.2500 0.0000 -0.5000
Zn1B Zn 0.5000 0.0000 0.2500
Zn1D Zn 0.7500 0.5000 0.0000
Zn1F Zn 0.2500 0.5000 0.0000
Zn1F_2 Zn 0.2500 -0.5000 0.0000
Zn1D_2 Zn 0.7500 -0.5000 0.0000
Zn1B_2 Zn 0.5000 0.0000 -0.7500
Zn1H Zn 1.0000 -0.2500 -0.5000
C1A C 0.4947(3) -0.1240(10) -0.1240(3)
C1DA C 0.6240(3) -0.0053(3) -0.3760(10)
C1BA C 0.3760(3) 0.0053(3) -0.3760(10)
C1B C 0.4947(3) 0.1240(10) 0.1240(3)
C1FA C 0.6240(10) 0.3760(3) 0.0053(3)
C1GA C 0.3760(10) 0.3760(3) -0.0053(3)
C1C C 0.5053(3) -0.1240(10) 0.1240(3)
C1IA C 0.3760(10) -0.3760(3) 0.0053(3)
C1HA C 0.6240(10) -0.3760(3) -0.0053(3)
C1EA C 0.6240(3) 0.0053(3) -0.6240(10)
C1I C 0.8760(10) -0.1240(3) -0.5053(3)
N1S N 0.4643(3) 0.1827(4) -0.0883(4)
N1A N 0.5357(3) -0.0883(4) -0.1827(4)
N1Q N 0.5357(3) -0.1827(4) -0.0883(4)
N1LA N 0.5883(4) 0.0357(3) -0.3173(4)
N1DA N 0.6827(4) 0.0357(3) -0.4117(4)
N1MA N 0.4117(4) -0.0357(3) -0.3173(4)
N1BA N 0.3173(4) -0.0357(3) -0.4117(4)
N1R N 0.5357(3) 0.1827(4) 0.0883(4)
N1B N 0.5357(3) 0.0883(4) 0.1827(4)
N1FA N 0.5883(4) 0.3173(4) -0.0357(3)
N1UA N 0.6827(4) 0.4117(4) -0.0357(3)
N1GA N 0.4117(4) 0.3173(4) 0.0357(3)
N1SA N 0.3173(4) 0.4117(4) 0.0357(3)
N1P N 0.4643(3) -0.1827(4) 0.0883(4)
N1C N 0.4643(3) -0.0883(4) 0.1827(4)
N1IA N 0.4117(4) -0.3173(4) -0.0357(3)
N1RA N 0.3173(4) -0.4117(4) -0.0357(3)
N1HA N 0.5883(4) -0.3173(4) 0.0357(3)
N1TA N 0.6827(4) -0.4117(4) 0.0357(3)
N1EA N 0.6827(4) -0.0357(3) -0.5883(4)
N1JA N 0.5883(4) -0.0357(3) -0.6827(4)
N1U N 0.8173(4) -0.0883(4) -0.4643(3)
N1I N 0.9117(4) -0.1827(4) -0.4643(3)
N1T N 0.8173(4) 0.0883(4) -0.5357(3)
N1CA N 0.3173(4) 0.0357(3) -0.5883(4)
N1V N 0.1827(4) 0.0883(4) -0.4643(3)
N1W N 0.1827(4) -0.0883(4) -0.5357(3)
N1KA N 0.4117(4) 0.0357(3) 0.3173(4)
N1JA_2 N 0.5883(4) -0.0357(3) 0.3173(4)
C2S C 0.3912(5) 0.1840(6) -0.1276(4)
C2A C 0.6088(5) -0.1276(4) -0.1840(6)
C2Q C 0.6088(5) -0.1840(6) -0.1276(4)
C2LA C 0.6276(4) 0.1088(5) -0.3160(6)
C2DA C 0.6840(6) 0.1088(5) -0.3724(4)
C2MA C 0.3724(4) -0.1088(5) -0.3160(6)
C2BA C 0.3160(6) -0.1088(5) -0.3724(4)
C2R C 0.6088(5) 0.1840(6) 0.1276(4)
C2B C 0.6088(5) 0.1276(4) 0.1840(6)
C2FA C 0.6276(4) 0.3160(6) -0.1088(5)
C2UA C 0.6840(6) 0.3724(4) -0.1088(5)
C2GA C 0.3724(4) 0.3160(6) 0.1088(5)
C2SA C 0.3160(6) 0.3724(4) 0.1088(5)
C2P C 0.3912(5) -0.1840(6) 0.1276(4)
C2C C 0.3912(5) -0.1276(4) 0.1840(6)
C2IA C 0.3724(4) -0.3160(6) -0.1088(5)
C2RA C 0.3160(6) -0.3724(4) -0.1088(5)
C2HA C 0.6276(4) -0.3160(6) 0.1088(5)
C2TA C 0.6840(6) -0.3724(4) 0.1088(5)
C2EA C 0.6840(6) -0.1088(5) -0.6276(4)
C2JA C 0.6276(4) -0.1088(5) -0.6840(6)
C2U C 0.8160(6) -0.1276(4) -0.3912(5)
C2I C 0.8724(4) -0.1840(6) -0.3912(5)
H1S H 0.3494 0.2183 -0.1165
H1A H 0.6506 -0.1165 -0.2183
H1Q H 0.6506 -0.2183 -0.1165
H1LA H 0.6165 0.1506 -0.2817
H1DA H 0.7183 0.1506 -0.3835
H1MA H 0.3835 -0.1506 -0.2817
H1BA H 0.2817 -0.1506 -0.3835
H1R H 0.6506 0.2183 0.1165
H1B H 0.6506 0.1165 0.2183
H1FA H 0.6165 0.2817 -0.1506
H1UA H 0.7183 0.3835 -0.1506
H1GA H 0.3835 0.2817 0.1506
H1SA H 0.2817 0.3835 0.1506
H1P H 0.3494 -0.2183 0.1165
H1C H 0.3494 -0.1165 0.2183
H1IA H 0.3835 -0.2817 -0.1506
H1RA H 0.2817 -0.3835 -0.1506
H1HA H 0.6165 -0.2817 0.1506
H1TA H 0.7183 -0.3835 0.1506
H1EA H 0.7183 -0.1506 -0.6165
H1JA H 0.6165 -0.1506 -0.7183
H1U H 0.7817 -0.1165 -0.3494
H1I H 0.8835 -0.2183 -0.3494
C3A C 0.4139(6) -0.0985(6) -0.0985(6)
C3DA C 0.5985(6) -0.0861(6) -0.4015(6)
C3BA C 0.4015(6) 0.0861(6) -0.4015(6)
C3B C 0.4139(6) 0.0985(6) 0.0985(6)
C3FA C 0.5985(6) 0.4015(6) 0.0861(6)
C3GA C 0.4015(6) 0.4015(6) -0.0861(6)
C3C C 0.5861(6) -0.0985(6) 0.0985(6)
C3IA C 0.4015(6) -0.4015(6) 0.0861(6)
C3HA C 0.5985(6) -0.4015(6) -0.0861(6)
C3EA C 0.5985(6) 0.0861(6) -0.5985(6)
C3I C 0.9015(6) -0.0985(6) -0.5861(6)
O1 O 0.6920(11) 0.6920(11) 0.3080(11)
O2 O 0.816(3) 0.816(3) 0.184(3)
H2? H 0.6047 0.1328 -0.0570
H3? H 0.6218 0.1012 -0.1428
H4? H 0.5839 0.0449 -0.0791
loop_
_geom_bond_atom_site_label_1
_geom_bond_atom_site_label_2
_geom_bond_site_symmetry_1
_geom_bond_site_symmetry_2
Zn1 N1 1_555 1_555
C1 N1 1_555 1_555
N1 C2 1_555 1_555
C2 H1 1_555 1_555
C3 C1 1_555 1_555
Zn1R N1S 1_555 1_555
Zn1P N1Q 1_555 1_555
Zn1T N1DA 1_555 1_555
Zn1V N1BA 1_555 1_555
Zn1B N1B 1_555 1_555
Zn1D N1UA 1_555 1_555
Zn1F N1SA 1_555 1_555
Zn1F_2 N1RA 1_555 1_555
Zn1D_2 N1TA 1_555 1_555
Zn1B_2 N1JA 1_555 1_555
Zn1H N1I 1_555 1_555
C1A N1A 1_555 1_555
C1DA N1LA 1_555 1_555
C1BA N1MA 1_555 1_555
C1B N1R 1_555 1_555
C1FA N1FA 1_555 1_555
C1GA N1GA 1_555 1_555
C1C N1P 1_555 1_555
C1IA N1IA 1_555 1_555
C1HA N1HA 1_555 1_555
C1EA N1EA 1_555 1_555
C1I N1U 1_555 1_555
N1S C1 1_555 1_555
N1A Zn1 1_555 1_555
N1Q C1A 1_555 1_555
N1LA Zn1 1_555 1_555
N1DA C1DA 1_555 1_555
N1MA Zn1 1_555 1_555
N1BA C1BA 1_555 1_555
N1R Zn1R 1_555 1_555
N1B C1B 1_555 1_555
N1FA Zn1R 1_555 1_555
N1UA C1FA 1_555 1_555
N1GA Zn1R 1_555 1_555
N1SA C1GA 1_555 1_555
N1P Zn1P 1_555 1_555
N1C Zn1B 1_555 1_555
N1IA Zn1P 1_555 1_555
N1RA C1IA 1_555 1_555
N1HA Zn1P 1_555 1_555
N1TA C1HA 1_555 1_555
N1EA Zn1T 1_555 1_555
N1JA C1EA 1_555 1_555
N1U Zn1T 1_555 1_555
N1I C1I 1_555 1_555
N1T Zn1T 1_555 1_555
N1CA Zn1V 1_555 1_555
N1V Zn1V 1_555 1_555
N1W Zn1V 1_555 1_555
N1KA Zn1B 1_555 1_555
N1JA_2 Zn1B 1_555 1_555
C2S C2 1_555 1_555
C2A N1A 1_555 1_555
C2Q N1Q 1_555 1_555
C2LA N1LA 1_555 1_555
C2DA N1DA 1_555 1_555
C2MA N1MA 1_555 1_555
C2BA N1BA 1_555 1_555
C2R N1R 1_555 1_555
C2B N1B 1_555 1_555
C2FA N1FA 1_555 1_555
C2UA N1UA 1_555 1_555
C2GA N1GA 1_555 1_555
C2SA N1SA 1_555 1_555
C2P N1P 1_555 1_555
C2C N1C 1_555 1_555
C2IA N1IA 1_555 1_555
C2RA N1RA 1_555 1_555
C2HA N1HA 1_555 1_555
C2TA N1TA 1_555 1_555
C2EA N1EA 1_555 1_555
C2JA N1JA 1_555 1_555
C2U N1U 1_555 1_555
C2I N1I 1_555 1_555
H1S C2S 1_555 1_555
H1A C2A 1_555 1_555
H1Q C2Q 1_555 1_555
H1LA C2LA 1_555 1_555
H1DA C2DA 1_555 1_555
H1MA C2MA 1_555 1_555
H1BA C2BA 1_555 1_555
H1R C2R 1_555 1_555
H1B C2B 1_555 1_555
H1FA C2FA 1_555 1_555
H1UA C2UA 1_555 1_555
H1GA C2GA 1_555 1_555
H1SA C2SA 1_555 1_555
H1P C2P 1_555 1_555
H1C C2C 1_555 1_555
H1IA C2IA 1_555 1_555
H1RA C2RA 1_555 1_555
H1HA C2HA 1_555 1_555
H1TA C2TA 1_555 1_555
H1EA C2EA 1_555 1_555
H1JA C2JA 1_555 1_555
H1U C2U 1_555 1_555
H1I C2I 1_555 1_555
C3A C1A 1_555 1_555
C3DA C1DA 1_555 1_555
C3BA C1BA 1_555 1_555
C3B C1B 1_555 1_555
C3FA C1FA 1_555 1_555
C3GA C1GA 1_555 1_555
C3C C1C 1_555 1_555
C3IA C1IA 1_555 1_555
C3HA C1HA 1_555 1_555
C3EA C1EA 1_555 1_555
C3I C1I 1_555 1_555
C1C N1C 1_555 1_555
N1S C2S 1_555 1_555
C2A C2Q 1_555 1_555
C2LA C2DA 1_555 1_555
C2MA C2BA 1_555 1_555
C2R C2B 1_555 1_555
C2FA C2UA 1_555 1_555
C2GA C2SA 1_555 1_555
C2P C2C 1_555 1_555
C2IA C2RA 1_555 1_555
C2HA C2TA 1_555 1_555
C2EA C2JA 1_555 1_555
C2U C2I 1_555 1_555

#END
