
#######################################################################
#
#                 Cambridge Crystallographic Data Centre
#                                CCDC 
#
#######################################################################
#
# If this CIF has been generated from an entry in the Cambridge 
# Structural Database, then it will include bibliographic, chemical, 
# crystal, experimental, refinement or atomic coordinate data resulting 
# from the CCDC's data processing and validation procedures.
#
#######################################################################

data_QEPQOT01
_chemical_formula_moiety         '(C54 H36 Br2 N2 O12 Zn2)n,18n(C3 H7 N1 O1)'
_chemical_name_systematic        
'catena-((\m~8~-1,4-Dibromo-2,3,5,6-tetrakis(4-carboxylatophenyl)benzene)-(\m~2~-2,3,5,6-tetramethoxy-1,4-bis(4-pyridyl)benzene)-di-zinc dimethylformamide solvate)'
_symmetry_cell_setting           orthorhombic
_symmetry_space_group_name_H-M   'P m m m'
_symmetry_Int_Tables_number      47
_space_group_name_Hall           '-P 2 2'
loop_
_symmetry_equiv_pos_site_id
_symmetry_equiv_pos_as_xyz
1 x,y,z
2 -x,-y,z
3 -x,y,-z
4 x,-y,-z
5 -x,-y,-z
6 x,y,-z
7 x,-y,z
8 -x,y,z
_cell_length_a                   10.8826(16)
_cell_length_b                   16.0836(19)
_cell_length_c                   18.292(3)
_cell_angle_alpha                90
_cell_angle_beta                 90
_cell_angle_gamma                90
_cell_volume                     3201.67
_exptl_crystal_colour            colorless
_exptl_crystal_description       plate
_cell_formula_units_Z            1
loop_
_atom_site_label
_atom_site_type_symbol
_atom_site_fract_x
_atom_site_fract_y
_atom_site_fract_z
Zn1 Zn 0.0000 0.0000 0.58028(10)
Br1 Br -0.20022(13) -0.5000 0.5000
O1 O -0.1283(4) -0.0890(2) 0.5616(2)
N1 N 0.0000 0.0000 0.6841(7)
C1 C -0.0937(12) -0.0305(7) 0.7274(7)
H1 H -0.1627 -0.0532 0.7026
C2 C -0.1548(7) -0.1133(4) 0.5000
C3 C -0.2381(8) -0.1963(4) 0.5000
C4 C -0.2727(7) -0.2307(4) 0.4348(4)
H2 H -0.2521 -0.2045 0.3899
C5 C -0.3379(6) -0.3040(4) 0.4355(4)
H3 H -0.3616 -0.3287 0.3905
C6 C -0.3694(7) -0.3422(4) 0.5000
C7 C -0.4373(6) -0.4240(4) 0.5000
C8 C -0.3755(9) -0.5000 0.5000
Br1A Br -0.79978(13) -0.5000 0.5000
O1B O -0.8717(4) -0.0890(2) 0.4384(2)
C2B C -0.8452(7) -0.1133(4) 0.5000
C3B C -0.7619(8) -0.1963(4) 0.5000
C4B C -0.7273(7) -0.2307(4) 0.5652(4)
H2B H -0.7479 -0.2045 0.6101
C5B C -0.6621(6) -0.3040(4) 0.5645(4)
H3B H -0.6384 -0.3287 0.6095
C6B C -0.6306(7) -0.3422(4) 0.5000
C7B C -0.5627(6) -0.4240(4) 0.5000
C8A C -0.6245(9) -0.5000 0.5000
O1C O -0.1283(4) -0.9110(2) 0.4384(2)
C2C C -0.1548(7) -0.8867(4) 0.5000
C3C C -0.2381(8) -0.8037(4) 0.5000
C4C C -0.2727(7) -0.7693(4) 0.5652(4)
H2C H -0.2521 -0.7955 0.6101
C5C C -0.3379(6) -0.6960(4) 0.5645(4)
H3C H -0.3616 -0.6713 0.6095
C6C C -0.3694(7) -0.6578(4) 0.5000
C7C C -0.4373(6) -0.5760(4) 0.5000
O1D O -0.8717(4) -0.9110(2) 0.4384(2)
C2A C -0.8452(7) -0.8867(4) 0.5000
C3A C -0.7619(8) -0.8037(4) 0.5000
C4D C -0.7273(7) -0.7693(4) 0.5652(4)
H2D H -0.7479 -0.7955 0.6101
C5D C -0.6621(6) -0.6960(4) 0.5645(4)
H3D H -0.6384 -0.6713 0.6095
C6A C -0.6306(7) -0.6578(4) 0.5000
C7A C -0.5627(6) -0.5760(4) 0.5000
O1E O -0.1283(4) -0.0890(2) 0.4384(2)
C4E C -0.2727(7) -0.2307(4) 0.5652(4)
H2E H -0.2521 -0.2045 0.6101
C5E C -0.3379(6) -0.3040(4) 0.5645(4)
H3E H -0.3616 -0.3287 0.6095
O1F O -0.1283(4) -0.9110(2) 0.5616(2)
C4F C -0.2727(7) -0.7693(4) 0.4348(4)
H2F H -0.2521 -0.7955 0.3899
C5F C -0.3379(6) -0.6960(4) 0.4355(4)
H3F H -0.3616 -0.6713 0.3905
O1G O -0.8717(4) -0.0890(2) 0.5616(2)
C4G C -0.7273(7) -0.2307(4) 0.4348(4)
H2G H -0.7479 -0.2045 0.3899
C5G C -0.6621(6) -0.3040(4) 0.4355(4)
H3G H -0.6384 -0.3287 0.3905
O1A O -0.8717(4) -0.9110(2) 0.5616(2)
C4A C -0.7273(7) -0.7693(4) 0.4348(4)
H2A H -0.7479 -0.7955 0.3899
C5A C -0.6621(6) -0.6960(4) 0.4355(4)
H3A H -0.6384 -0.6713 0.3905
C1A C 0.0937(12) 0.0305(7) 0.7274(7)
H1A H 0.1627 0.0532 0.7026
C1F C -0.0937(12) 0.0305(7) 0.7274(7)
H1F H -0.1627 0.0532 0.7026
C1G C 0.0937(12) -0.0305(7) 0.7274(7)
H1G H 0.1627 -0.0532 0.7026
Zn1B Zn 0.0000 0.0000 0.41972(10)
Zn1_2 Zn -1.0000 -1.0000 0.58028(10)
Zn1_3 Zn -1.0000 0.0000 0.58028(10)
Zn1_4 Zn 0.0000 -1.0000 0.58028(10)
Zn1B_2 Zn -1.0000 -1.0000 0.41972(10)
Zn1B_3 Zn -1.0000 0.0000 0.41972(10)
Zn1B_4 Zn 0.0000 -1.0000 0.41972(10)
O1A_2 O 0.1283(4) 0.0890(2) 0.5616(2)
O1B_2 O 0.1283(4) -0.0890(2) 0.4384(2)
O1C_2 O -0.1283(4) 0.0890(2) 0.4384(2)
O1D_2 O 0.1283(4) 0.0890(2) 0.4384(2)
O1F_2 O -0.1283(4) 0.0890(2) 0.5616(2)
O1G_2 O 0.1283(4) -0.0890(2) 0.5616(2)
N1B N 0.0000 0.0000 0.3159(7)
O2 O 0.0000 -0.1471(7) 0.9206(5)
C9 C -0.0975(14) -0.0315(7) 0.8006(8)
H4 H -0.1677 -0.0540 0.8243
C10 C 0.0000 0.0000 0.8435(8)
C11 C 0.0000 0.0000 0.9208(9)
C12 C 0.0000 -0.0701(9) 0.9628(6)
C13 C 0.0000 -0.2213(12) 0.9296(10)
H5 H 0.0769 -0.2380 0.9532
H6 H -0.0696 -0.2369 0.9608
O2A O 0.0000 0.1471(7) 0.9206(5)
C9A C 0.0975(14) 0.0315(7) 0.8006(8)
H4A H 0.1677 0.0540 0.8243
C12A C 0.0000 0.0701(9) 0.9628(6)
C13A C 0.0000 0.2213(12) 0.9296(10)
H5A H -0.0769 0.2380 0.9532
H6A H 0.0696 0.2369 0.9608
O2B O 0.0000 -0.1471(7) 1.0794(5)
C9B C 0.0975(14) -0.0315(7) 1.1994(8)
H4B H 0.1677 -0.0540 1.1757
C10B C 0.0000 0.0000 1.1565(8)
C11B C 0.0000 0.0000 1.0792(9)
C12B C 0.0000 -0.0701(9) 1.0372(6)
C13B C 0.0000 -0.2213(12) 1.0704(10)
H5B H -0.0769 -0.2380 1.0468
H6B H 0.0696 -0.2369 1.0392
O2C O 0.0000 0.1471(7) 1.0794(5)
C9C C -0.0975(14) 0.0315(7) 1.1994(8)
H4C H -0.1677 0.0540 1.1757
C12C C 0.0000 0.0701(9) 1.0372(6)
C13C C 0.0000 0.2213(12) 1.0704(10)
H5C H 0.0769 0.2380 1.0468
H6C H -0.0696 0.2369 1.0392
C9D C 0.0975(14) 0.0315(7) 1.1994(8)
H4D H 0.1677 0.0540 1.1757
H5D H -0.0769 0.2380 1.0468
H6D H 0.0696 0.2369 1.0392
C9E C -0.0975(14) -0.0315(7) 1.1994(8)
H4E H -0.1677 -0.0540 1.1757
H5E H 0.0769 -0.2380 1.0468
H6E H -0.0696 -0.2369 1.0392
C9F C -0.0975(14) 0.0315(7) 0.8006(8)
H4F H -0.1677 0.0540 0.8243
H5F H 0.0769 0.2380 0.9532
H6F H -0.0696 0.2369 0.9608
C9G C 0.0975(14) -0.0315(7) 0.8006(8)
H4G H 0.1677 -0.0540 0.8243
H5G H -0.0769 -0.2380 0.9532
H6G H 0.0696 -0.2369 0.9608
N1B_2 N 0.0000 0.0000 1.3159(7)
C1B C 0.0937(12) -0.0305(7) 1.2726(7)
H1B H 0.1627 -0.0532 1.2974
C1C C -0.0937(12) 0.0305(7) 1.2726(7)
H1C H -0.1627 0.0532 1.2974
C1D C 0.0937(12) 0.0305(7) 1.2726(7)
H1D H 0.1627 0.0532 1.2974
C1E C -0.0937(12) -0.0305(7) 1.2726(7)
H1E H -0.1627 -0.0532 1.2974
Zn1B_5 Zn 0.0000 0.0000 1.41972(10)
H7? H -0.0074 -0.2492 0.8823
loop_
_geom_bond_atom_site_label_1
_geom_bond_atom_site_label_2
_geom_bond_site_symmetry_1
_geom_bond_site_symmetry_2
Zn1 O1 1_555 1_555
Br1 C8 1_555 1_555
O1 C2 1_555 1_555
N1 Zn1 1_555 1_555
C1 N1 1_555 1_555
H1 C1 1_555 1_555
C2 C3 1_555 1_555
C3 C4 1_555 1_555
C4 H2 1_555 1_555
C5 C4 1_555 1_555
H3 C5 1_555 1_555
C6 C5 1_555 1_555
C7 C6 1_555 1_555
C8 C7 1_555 1_555
O2 C12 1_555 1_555
C9 H4 1_555 1_555
C10 C9 1_555 1_555
C11 C10 1_555 1_555
C12 C11 1_555 1_555
C13 O2 1_555 1_555
H5 C13 1_555 1_555
H6 C13 1_555 1_555
Br1A C8A 1_555 1_555
O1B C2B 1_555 1_555
C2B C3B 1_555 1_555
C3B C4B 1_555 1_555
C4B H2B 1_555 1_555
C5B C4B 1_555 1_555
H3B C5B 1_555 1_555
C6B C5B 1_555 1_555
C7B C7 1_555 1_555
C8A C7B 1_555 1_555
O1C C2C 1_555 1_555
C2C C3C 1_555 1_555
C3C C4C 1_555 1_555
C4C H2C 1_555 1_555
C5C C4C 1_555 1_555
H3C C5C 1_555 1_555
C6C C5C 1_555 1_555
C7C C8 1_555 1_555
O1D C2A 1_555 1_555
C2A C3A 1_555 1_555
C3A C4D 1_555 1_555
C4D H2D 1_555 1_555
C5D C4D 1_555 1_555
H3D C5D 1_555 1_555
C6A C5D 1_555 1_555
C7A C8A 1_555 1_555
O1E C2 1_555 1_555
C4E C3 1_555 1_555
H2E C4E 1_555 1_555
C5E C6 1_555 1_555
H3E C5E 1_555 1_555
O1F C2C 1_555 1_555
C4F C3C 1_555 1_555
H2F C4F 1_555 1_555
C5F C6C 1_555 1_555
H3F C5F 1_555 1_555
O1G C2B 1_555 1_555
C4G C3B 1_555 1_555
H2G C4G 1_555 1_555
C5G C6B 1_555 1_555
H3G C5G 1_555 1_555
O1A C2A 1_555 1_555
C4A C3A 1_555 1_555
H2A C4A 1_555 1_555
C5A C6A 1_555 1_555
H3A C5A 1_555 1_555
C1A N1 1_555 1_555
H1A C1A 1_555 1_555
C1F N1 1_555 1_555
H1F C1F 1_555 1_555
C1G N1 1_555 1_555
H1G C1G 1_555 1_555
Zn1B O1E 1_555 1_555
Zn1_2 O1A 1_555 1_555
Zn1_3 O1G 1_555 1_555
Zn1_4 O1F 1_555 1_555
Zn1B_2 O1D 1_555 1_555
Zn1B_3 O1B 1_555 1_555
Zn1B_4 O1C 1_555 1_555
O1A_2 Zn1 1_555 1_555
O1B_2 Zn1B 1_555 1_555
O1C_2 Zn1B 1_555 1_555
O1D_2 Zn1B 1_555 1_555
O1F_2 Zn1 1_555 1_555
O1G_2 Zn1 1_555 1_555
N1B Zn1B 1_555 1_555
O2A C12A 1_555 1_555
C9A C10 1_555 1_555
H4A C9A 1_555 1_555
C12A C11 1_555 1_555
C13A O2A 1_555 1_555
H5A C13A 1_555 1_555
H6A C13A 1_555 1_555
O2B C12B 1_555 1_555
C9B H4B 1_555 1_555
C10B C9B 1_555 1_555
C11B C10B 1_555 1_555
C12B C12 1_555 1_555
C13B O2B 1_555 1_555
H5B C13B 1_555 1_555
H6B C13B 1_555 1_555
O2C C12C 1_555 1_555
C9C C10B 1_555 1_555
H4C C9C 1_555 1_555
C12C C12A 1_555 1_555
C13C O2C 1_555 1_555
H5C C13C 1_555 1_555
H6C C13C 1_555 1_555
C9D C9B 1_555 1_555
H4D C9D 1_555 1_555
H5D C13C 1_555 1_555
H6D C13C 1_555 1_555
C9E C10B 1_555 1_555
H4E C9E 1_555 1_555
H5E C13B 1_555 1_555
H6E C13B 1_555 1_555
C9F C9 1_555 1_555
H4F C9F 1_555 1_555
H5F C13A 1_555 1_555
H6F C13A 1_555 1_555
C9G C10 1_555 1_555
H4G C9G 1_555 1_555
H5G C13 1_555 1_555
H6G C13 1_555 1_555
N1B_2 C1B 1_555 1_555
C1B H1B 1_555 1_555
C1C N1B_2 1_555 1_555
H1C C1C 1_555 1_555
C1D N1B_2 1_555 1_555
H1D C1D 1_555 1_555
C1E N1B_2 1_555 1_555
H1E C1E 1_555 1_555
Zn1B_5 N1B_2 1_555 1_555
C1 C1F 1_555 1_555
C10 C9F 1_555 1_555
C6B C7B 1_555 1_555
C6C C7C 1_555 1_555
C7C C7A 1_555 1_555
C6A C7A 1_555 1_555
C4E C5E 1_555 1_555
C4F C5F 1_555 1_555
C4G C5G 1_555 1_555
C4A C5A 1_555 1_555
C1A C1G 1_555 1_555
C9A C9G 1_555 1_555
C10B C9D 1_555 1_555
C11B C12B 1_555 1_555
C11B C12C 1_555 1_555
C9C C9E 1_555 1_555
C1B C1D 1_555 1_555
C1C C1E 1_555 1_555

#END
