
#######################################################################
#
#                 Cambridge Crystallographic Data Centre
#                                CCDC 
#
#######################################################################
#
# If this CIF has been generated from an entry in the Cambridge 
# Structural Database, then it will include bibliographic, chemical, 
# crystal, experimental, refinement or atomic coordinate data resulting 
# from the CCDC's data processing and validation procedures.
#
#######################################################################

data_BIPLAQ
_chemical_name_common            Cu-PCN-224
_chemical_formula_moiety         '(C144 H104 Cu3 N12 O52 Zr12)n'
_chemical_name_systematic        
"catena-(tris(\m-4,4',4'',4'''-(porphyrin-5,10,15,20-tetrayl)tetrabenzoato)-octakis(\m-hydroxo)-octakis(\m-oxo)-dodeca-aqua-tri-copper-dodeca-zirconium unknown solvate)"
_symmetry_cell_setting           cubic
_symmetry_space_group_name_H-M   'I m -3 m'
_symmetry_Int_Tables_number      229
_space_group_name_Hall           '-I 4 2 3'
loop_
_symmetry_equiv_pos_site_id
_symmetry_equiv_pos_as_xyz
1 x,y,z
2 -x,-y,z
3 -x,y,-z
4 x,-y,-z
5 z,x,y
6 z,-x,-y
7 -z,-x,y
8 -z,x,-y
9 y,z,x
10 -y,z,-x
11 y,-z,-x
12 -y,-z,x
13 y,x,-z
14 -y,-x,-z
15 y,-x,z
16 -y,x,z
17 x,z,-y
18 -x,z,y
19 -x,-z,-y
20 x,-z,y
21 z,y,-x
22 z,-y,x
23 -z,y,x
24 -z,-y,-x
25 1/2+x,1/2+y,1/2+z
26 1/2-x,1/2-y,1/2+z
27 1/2-x,1/2+y,1/2-z
28 1/2+x,1/2-y,1/2-z
29 1/2+z,1/2+x,1/2+y
30 1/2+z,1/2-x,1/2-y
31 1/2-z,1/2-x,1/2+y
32 1/2-z,1/2+x,1/2-y
33 1/2+y,1/2+z,1/2+x
34 1/2-y,1/2+z,1/2-x
35 1/2+y,1/2-z,1/2-x
36 1/2-y,1/2-z,1/2+x
37 1/2+y,1/2+x,1/2-z
38 1/2-y,1/2-x,1/2-z
39 1/2+y,1/2-x,1/2+z
40 1/2-y,1/2+x,1/2+z
41 1/2+x,1/2+z,1/2-y
42 1/2-x,1/2+z,1/2+y
43 1/2-x,1/2-z,1/2-y
44 1/2+x,1/2-z,1/2+y
45 1/2+z,1/2+y,1/2-x
46 1/2+z,1/2-y,1/2+x
47 1/2-z,1/2+y,1/2+x
48 1/2-z,1/2-y,1/2-x
49 -x,-y,-z
50 x,y,-z
51 x,-y,z
52 -x,y,z
53 -z,-x,-y
54 -z,x,y
55 z,x,-y
56 z,-x,y
57 -y,-z,-x
58 y,-z,x
59 -y,z,x
60 y,z,-x
61 -y,-x,z
62 y,x,z
63 -y,x,-z
64 y,-x,-z
65 -x,-z,y
66 x,-z,-y
67 x,z,y
68 -x,z,-y
69 -z,-y,x
70 -z,y,-x
71 z,-y,-x
72 z,y,x
73 1/2-x,1/2-y,1/2-z
74 1/2+x,1/2+y,1/2-z
75 1/2+x,1/2-y,1/2+z
76 1/2-x,1/2+y,1/2+z
77 1/2-z,1/2-x,1/2-y
78 1/2-z,1/2+x,1/2+y
79 1/2+z,1/2+x,1/2-y
80 1/2+z,1/2-x,1/2+y
81 1/2-y,1/2-z,1/2-x
82 1/2+y,1/2-z,1/2+x
83 1/2-y,1/2+z,1/2+x
84 1/2+y,1/2+z,1/2-x
85 1/2-y,1/2-x,1/2+z
86 1/2+y,1/2+x,1/2+z
87 1/2-y,1/2+x,1/2-z
88 1/2+y,1/2-x,1/2-z
89 1/2-x,1/2-z,1/2+y
90 1/2+x,1/2-z,1/2-y
91 1/2+x,1/2+z,1/2+y
92 1/2-x,1/2+z,1/2-y
93 1/2-z,1/2-y,1/2+x
94 1/2-z,1/2+y,1/2-x
95 1/2+z,1/2-y,1/2-x
96 1/2+z,1/2+y,1/2+x
_cell_length_a                   38.4520(7)
_cell_length_b                   38.4520(7)
_cell_length_c                   38.4520(7)
_cell_angle_alpha                90
_cell_angle_beta                 90
_cell_angle_gamma                90
_cell_volume                     56853.4
_exptl_crystal_colour            'dark red'
_exptl_crystal_description       block
_cell_formula_units_Z            4
loop_
_atom_site_label
_atom_site_type_symbol
_atom_site_fract_x
_atom_site_fract_y
_atom_site_fract_z
Zr1 Zr 0.70717(2) 0.70717(2) 0.77208(2)
Cu1 Cu 0.750000 0.500000 1.000000
O1 O 0.72259(14) 0.67180(13) 0.81397(13)
O2 O 0.6717(3) 0.6717(3) 0.7532(4)
O3 O 0.71736(16) 0.71736(16) 0.71736(16)
O4 O 0.7416(2) 0.7416(2) 0.8060(3)
N1 N 0.7498(2) 0.55187(17) 1.000000
C1 C 0.750000 0.66813(17) 0.83187(17)
C2 C 0.750000 0.64077(16) 0.85923(16)
C3 C 0.7205(2) 0.6211(2) 0.86404(19)
H1 H 0.700404 0.625072 0.850172
C4 C 0.7203(2) 0.5958(2) 0.88894(19)
H2 H 0.700158 0.581968 0.892295
C5 C 0.750000 0.59028(17) 0.90972(17)
C6 C 0.750000 0.56310(16) 0.93690(16)
C7 C 0.7487(2) 0.57318(14) 0.97162(15)
C8 C 0.7471(2) 0.60903(15) 0.98251(16)
H3 H 0.746223 0.628856 0.967792
O1PA O 0.77741(14) 0.68603(13) 0.82820(13)
N1PA N 0.7502(2) 0.500000 0.94813(17)
C3PA C 0.7795(2) 0.63596(19) 0.8789(2)
H1PA H 0.799596 0.649828 0.874928
C4PA C 0.7797(2) 0.61106(19) 0.9042(2)
H2PA H 0.799842 0.607705 0.918032
C7PA C 0.7513(2) 0.52838(15) 0.92682(14)
C8PA C 0.7529(2) 0.51749(16) 0.89097(15)
H3PA H 0.753777 0.532208 0.871144
O1WA O 0.72259(14) 0.67180(13) 1.18603(13)
C1WA C 0.750000 0.66813(17) 1.16813(17)
C2WA C 0.750000 0.64077(16) 1.14077(16)
C3WA C 0.7205(2) 0.6211(2) 1.13596(19)
H1WA H 0.700404 0.625072 1.149828
C4WA C 0.7203(2) 0.5958(2) 1.11106(19)
H2WA H 0.700158 0.581968 1.107705
C5WA C 0.750000 0.59028(17) 1.09028(17)
C6WA C 0.750000 0.56310(16) 1.06310(16)
C7WA C 0.7487(2) 0.57318(14) 1.02838(15)
C8WA C 0.7471(2) 0.60903(15) 1.01749(16)
H3WA H 0.746223 0.628856 1.032208
O1JC O 0.77741(14) 0.68603(13) 1.17180(13)
N1OA N 0.7502(2) 0.500000 1.05187(17)
C3JC C 0.7795(2) 0.63596(19) 1.1211(2)
H1JC H 0.799596 0.649828 1.125072
C4JC C 0.7797(2) 0.61106(19) 1.0958(2)
H2JC H 0.799842 0.607705 1.081968
C7JC C 0.7513(2) 0.52838(15) 1.07318(14)
C8JC C 0.7529(2) 0.51749(16) 1.10903(15)
H3JC H 0.753777 0.532208 1.128856
O1MC O 0.77741(14) 0.31397(13) 0.82820(13)
C1XA C 0.750000 0.33187(17) 0.83187(17)
C2XA C 0.750000 0.35923(16) 0.85923(16)
C3MC C 0.7795(2) 0.36404(19) 0.8789(2)
H1MC H 0.799596 0.350172 0.874928
C4MC C 0.7797(2) 0.38894(19) 0.9042(2)
H2MC H 0.799842 0.392295 0.918032
C5XA C 0.750000 0.40972(17) 0.90972(17)
C6XA C 0.750000 0.43690(16) 0.93690(16)
C7MC C 0.7513(2) 0.47162(15) 0.92682(14)
C8MC C 0.7529(2) 0.48251(16) 0.89097(15)
H3MC H 0.753777 0.467792 0.871144
O1OA O 0.77741(14) 0.31397(13) 1.17180(13)
C1C C 0.750000 0.33187(17) 1.16813(17)
C2C C 0.750000 0.35923(16) 1.14077(16)
C3OA C 0.7795(2) 0.36404(19) 1.1211(2)
H1OA H 0.799596 0.350172 1.125072
C4OA C 0.7797(2) 0.38894(19) 1.0958(2)
H2OA H 0.799842 0.392295 1.081968
C5C C 0.750000 0.40972(17) 1.09028(17)
C6C C 0.750000 0.43690(16) 1.06310(16)
C7OA C 0.7513(2) 0.47162(15) 1.07318(14)
C8OA C 0.7529(2) 0.48251(16) 1.10903(15)
H3OA H 0.753777 0.467792 1.128856
O1XA O 0.72259(14) 0.32820(13) 0.81397(13)
N1C N 0.7498(2) 0.44813(17) 1.000000
C3XA C 0.7205(2) 0.3789(2) 0.86404(19)
H1XA H 0.700404 0.374928 0.850172
C4XA C 0.7203(2) 0.4042(2) 0.88894(19)
H2XA H 0.700158 0.418032 0.892295
C7XA C 0.7487(2) 0.42682(14) 0.97162(15)
C8XA C 0.7471(2) 0.39097(15) 0.98251(16)
H3XA H 0.746223 0.371144 0.967792
O1C O 0.72259(14) 0.32820(13) 1.18603(13)
C3C C 0.7205(2) 0.3789(2) 1.13596(19)
H1C H 0.700404 0.374928 1.149828
C4C C 0.7203(2) 0.4042(2) 1.11106(19)
H2C H 0.700158 0.418032 1.107705
C7C C 0.7487(2) 0.42682(14) 1.02838(15)
C8C C 0.7471(2) 0.39097(15) 1.01749(16)
H3C H 0.746223 0.371144 1.032208
Zr1C Zr 0.70717(2) 0.29283(2) 1.22792(2)
O2C O 0.6717(3) 0.3283(3) 1.2468(4)
O4C O 0.7416(2) 0.2584(2) 1.1940(3)
Zr1D Zr 0.77208(2) 0.70717(2) 0.70717(2)
Cu1D Cu 1.000000 0.750000 0.500000
O1D O 0.81397(13) 0.72259(14) 0.67180(13)
O2D O 0.7532(4) 0.6717(3) 0.6717(3)
O4D O 0.8060(3) 0.7416(2) 0.7416(2)
N1D N 1.000000 0.7498(2) 0.55187(17)
C1D C 0.83187(17) 0.750000 0.66813(17)
C2D C 0.85923(16) 0.750000 0.64077(16)
C3D C 0.86404(19) 0.7205(2) 0.6211(2)
H1D H 0.850172 0.700404 0.625072
C4D C 0.88894(19) 0.7203(2) 0.5958(2)
H2D H 0.892295 0.700158 0.581968
C5D C 0.90972(17) 0.750000 0.59028(17)
C6D C 0.93690(16) 0.750000 0.56310(16)
C7D C 0.97162(15) 0.7487(2) 0.57318(14)
C8D C 0.98251(16) 0.7471(2) 0.60903(15)
H3D H 0.967792 0.746223 0.628856
O1KA O 0.82820(13) 0.77741(14) 0.68603(13)
N1KA N 0.94813(17) 0.7502(2) 0.500000
C3KA C 0.8789(2) 0.7795(2) 0.63596(19)
H1KA H 0.874928 0.799596 0.649828
C4KA C 0.9042(2) 0.7797(2) 0.61106(19)
H2KA H 0.918032 0.799842 0.607705
C7KA C 0.92682(14) 0.7513(2) 0.52838(15)
C8KA C 0.89097(15) 0.7529(2) 0.51749(16)
H3KA H 0.871144 0.753777 0.532208
O1AB O 1.18603(13) 0.72259(14) 0.67180(13)
C1AB C 1.16813(17) 0.750000 0.66813(17)
C2AB C 1.14077(16) 0.750000 0.64077(16)
C3AB C 1.13596(19) 0.7205(2) 0.6211(2)
H1AB H 1.149828 0.700404 0.625072
C4AB C 1.11106(19) 0.7203(2) 0.5958(2)
H2AB H 1.107705 0.700158 0.581968
C5AB C 1.09028(17) 0.750000 0.59028(17)
C6AB C 1.06310(16) 0.750000 0.56310(16)
C7AB C 1.02838(15) 0.7487(2) 0.57318(14)
C8AB C 1.01749(16) 0.7471(2) 0.60903(15)
H3AB H 1.032208 0.746223 0.628856
O1IC O 1.17180(13) 0.77741(14) 0.68603(13)
N1LA N 1.05187(17) 0.7502(2) 0.500000
C3IC C 1.1211(2) 0.7795(2) 0.63596(19)
H1IC H 1.125072 0.799596 0.649828
C4IC C 1.0958(2) 0.7797(2) 0.61106(19)
H2IC H 1.081968 0.799842 0.607705
C7IC C 1.07318(14) 0.7513(2) 0.52838(15)
C8IC C 1.10903(15) 0.7529(2) 0.51749(16)
H3IC H 1.128856 0.753777 0.532208
O1FC O 0.82820(13) 0.77741(14) 0.31397(13)
C1BB C 0.83187(17) 0.750000 0.33187(17)
C2BB C 0.85923(16) 0.750000 0.35923(16)
C3FC C 0.8789(2) 0.7795(2) 0.36404(19)
H1FC H 0.874928 0.799596 0.350172
C4FC C 0.9042(2) 0.7797(2) 0.38894(19)
H2FC H 0.918032 0.799842 0.392295
C5BB C 0.90972(17) 0.750000 0.40972(17)
C6BB C 0.93690(16) 0.750000 0.43690(16)
C7FC C 0.92682(14) 0.7513(2) 0.47162(15)
C8FC C 0.89097(15) 0.7529(2) 0.48251(16)
H3FC H 0.871144 0.753777 0.467792
O1LA O 1.17180(13) 0.77741(14) 0.31397(13)
C1G C 1.16813(17) 0.750000 0.33187(17)
C2G C 1.14077(16) 0.750000 0.35923(16)
C3LA C 1.1211(2) 0.7795(2) 0.36404(19)
H1LA H 1.125072 0.799596 0.350172
C4LA C 1.0958(2) 0.7797(2) 0.38894(19)
H2LA H 1.081968 0.799842 0.392295
C5G C 1.09028(17) 0.750000 0.40972(17)
C6G C 1.06310(16) 0.750000 0.43690(16)
C7LA C 1.07318(14) 0.7513(2) 0.47162(15)
C8LA C 1.10903(15) 0.7529(2) 0.48251(16)
H3LA H 1.128856 0.753777 0.467792
O1BB O 0.81397(13) 0.72259(14) 0.32820(13)
N1G N 1.000000 0.7498(2) 0.44813(17)
C3BB C 0.86404(19) 0.7205(2) 0.3789(2)
H1BB H 0.850172 0.700404 0.374928
C4BB C 0.88894(19) 0.7203(2) 0.4042(2)
H2BB H 0.892295 0.700158 0.418032
C7BB C 0.97162(15) 0.7487(2) 0.42682(14)
C8BB C 0.98251(16) 0.7471(2) 0.39097(15)
H3BB H 0.967792 0.746223 0.371144
O1G O 1.18603(13) 0.72259(14) 0.32820(13)
C3G C 1.13596(19) 0.7205(2) 0.3789(2)
H1G H 1.149828 0.700404 0.374928
C4G C 1.11106(19) 0.7203(2) 0.4042(2)
H2G H 1.107705 0.700158 0.418032
C7G C 1.02838(15) 0.7487(2) 0.42682(14)
C8G C 1.01749(16) 0.7471(2) 0.39097(15)
H3G H 1.032208 0.746223 0.371144
Zr1H Zr 0.70717(2) 0.77208(2) 0.70717(2)
Cu1H Cu 0.500000 1.000000 0.750000
O1H O 0.67180(13) 0.81397(13) 0.72259(14)
O2H O 0.6717(3) 0.7532(4) 0.6717(3)
O4H O 0.7416(2) 0.8060(3) 0.7416(2)
N1H N 0.55187(17) 1.000000 0.7498(2)
C1H C 0.66813(17) 0.83187(17) 0.750000
C2H C 0.64077(16) 0.85923(16) 0.750000
C3H C 0.6211(2) 0.86404(19) 0.7205(2)
H1H H 0.625072 0.850172 0.700404
C4H C 0.5958(2) 0.88894(19) 0.7203(2)
H2H H 0.581968 0.892295 0.700158
C5H C 0.59028(17) 0.90972(17) 0.750000
C6H C 0.56310(16) 0.93690(16) 0.750000
C7H C 0.57318(14) 0.97162(15) 0.7487(2)
C8H C 0.60903(15) 0.98251(16) 0.7471(2)
H3H H 0.628856 0.967792 0.746223
O1UA O 0.68603(13) 0.82820(13) 0.77741(14)
N1UA N 0.500000 0.94813(17) 0.7502(2)
C3UA C 0.63596(19) 0.8789(2) 0.7795(2)
H1UA H 0.649828 0.874928 0.799596
C4UA C 0.61106(19) 0.9042(2) 0.7797(2)
H2UA H 0.607705 0.918032 0.799842
C7UA C 0.52838(15) 0.92682(14) 0.7513(2)
C8UA C 0.51749(16) 0.89097(15) 0.7529(2)
H3UA H 0.532208 0.871144 0.753777
O1EB O 0.67180(13) 1.18603(13) 0.72259(14)
C1EB C 0.66813(17) 1.16813(17) 0.750000
C2EB C 0.64077(16) 1.14077(16) 0.750000
C3EB C 0.6211(2) 1.13596(19) 0.7205(2)
H1EB H 0.625072 1.149828 0.700404
C4EB C 0.5958(2) 1.11106(19) 0.7203(2)
H2EB H 0.581968 1.107705 0.700158
C5EB C 0.59028(17) 1.09028(17) 0.750000
C6EB C 0.56310(16) 1.06310(16) 0.750000
C7EB C 0.57318(14) 1.02838(15) 0.7487(2)
C8EB C 0.60903(15) 1.01749(16) 0.7471(2)
H3EB H 0.628856 1.032208 0.746223
O1OC O 0.68603(13) 1.17180(13) 0.77741(14)
N1RA N 0.500000 1.05187(17) 0.7502(2)
C3OC C 0.63596(19) 1.1211(2) 0.7795(2)
H1OC H 0.649828 1.125072 0.799596
C4OC C 0.61106(19) 1.0958(2) 0.7797(2)
H2OC H 0.607705 1.081968 0.799842
C7OC C 0.52838(15) 1.07318(14) 0.7513(2)
C8OC C 0.51749(16) 1.10903(15) 0.7529(2)
H3OC H 0.532208 1.128856 0.753777
O1PC O 0.31397(13) 0.82820(13) 0.77741(14)
C1FB C 0.33187(17) 0.83187(17) 0.750000
C2FB C 0.35923(16) 0.85923(16) 0.750000
C3PC C 0.36404(19) 0.8789(2) 0.7795(2)
H1PC H 0.350172 0.874928 0.799596
C4PC C 0.38894(19) 0.9042(2) 0.7797(2)
H2PC H 0.392295 0.918032 0.799842
C5FB C 0.40972(17) 0.90972(17) 0.750000
C6FB C 0.43690(16) 0.93690(16) 0.750000
C7PC C 0.47162(15) 0.92682(14) 0.7513(2)
C8PC C 0.48251(16) 0.89097(15) 0.7529(2)
H3PC H 0.467792 0.871144 0.753777
O1RA O 0.31397(13) 1.17180(13) 0.77741(14)
C1K C 0.33187(17) 1.16813(17) 0.750000
C2K C 0.35923(16) 1.14077(16) 0.750000
C3RA C 0.36404(19) 1.1211(2) 0.7795(2)
H1RA H 0.350172 1.125072 0.799596
C4RA C 0.38894(19) 1.0958(2) 0.7797(2)
H2RA H 0.392295 1.081968 0.799842
C5K C 0.40972(17) 1.09028(17) 0.750000
C6K C 0.43690(16) 1.06310(16) 0.750000
C7RA C 0.47162(15) 1.07318(14) 0.7513(2)
C8RA C 0.48251(16) 1.10903(15) 0.7529(2)
H3RA H 0.467792 1.128856 0.753777
O1FB O 0.32820(13) 0.81397(13) 0.72259(14)
N1K N 0.44813(17) 1.000000 0.7498(2)
C3FB C 0.3789(2) 0.86404(19) 0.7205(2)
H1FB H 0.374928 0.850172 0.700404
C4FB C 0.4042(2) 0.88894(19) 0.7203(2)
H2FB H 0.418032 0.892295 0.700158
C7FB C 0.42682(14) 0.97162(15) 0.7487(2)
C8FB C 0.39097(15) 0.98251(16) 0.7471(2)
H3FB H 0.371144 0.967792 0.746223
O1K O 0.32820(13) 1.18603(13) 0.72259(14)
C3K C 0.3789(2) 1.13596(19) 0.7205(2)
H1K H 0.374928 1.149828 0.700404
C4K C 0.4042(2) 1.11106(19) 0.7203(2)
H2K H 0.418032 1.107705 0.700158
C7K C 0.42682(14) 1.02838(15) 0.7487(2)
C8K C 0.39097(15) 1.01749(16) 0.7471(2)
H3K H 0.371144 1.032208 0.746223
Zr1L Zr 0.70717(2) 0.70717(2) 1.22792(2)
O2L O 0.6717(3) 0.6717(3) 1.2468(4)
O3L O 0.71736(16) 0.71736(16) 1.28264(16)
O4L O 0.7416(2) 0.7416(2) 1.1940(3)
Zr1N Zr 0.70717(2) 0.29283(2) 0.77208(2)
O2N O 0.6717(3) 0.3283(3) 0.7532(4)
O3N O 0.71736(16) 0.28264(16) 0.71736(16)
O4N O 0.7416(2) 0.2584(2) 0.8060(3)
Zr1P Zr 0.70717(2) 0.77208(2) 1.29283(2)
O2P O 0.6717(3) 0.7532(4) 1.3283(3)
O4P O 0.7416(2) 0.8060(3) 1.2584(2)
Zr1S Zr 0.70717(2) 0.22792(2) 0.70717(2)
O2S O 0.6717(3) 0.2468(4) 0.6717(3)
O4S O 0.7416(2) 0.1940(3) 0.7416(2)
Zr1S_2 Zr 0.70717(2) 1.22792(2) 0.70717(2)
O2S_2 O 0.6717(3) 1.2468(4) 0.6717(3)
O4S_2 O 0.7416(2) 1.1940(3) 0.7416(2)
Zr1UA Zr 0.72792(2) 0.79283(2) 0.79283(2)
O2UA O 0.7468(4) 0.8283(3) 0.8283(3)
O3KA O 0.78264(16) 0.78264(16) 0.78264(16)
O4UA O 0.6940(3) 0.7584(2) 0.7584(2)
Zr1PA Zr 0.79283(2) 0.72792(2) 0.79283(2)
O2PA O 0.8283(3) 0.7468(4) 0.8283(3)
O4PA O 0.7584(2) 0.6940(3) 0.7584(2)
Zr1IA Zr 0.79283(2) 0.72792(2) 1.20717(2)
O2IA O 0.8283(3) 0.7468(4) 1.1717(3)
O4IA O 0.7584(2) 0.6940(3) 1.2416(2)
Zr1G Zr 1.22792(2) 0.70717(2) 0.29283(2)
Zr1K Zr 0.29283(2) 1.22792(2) 0.70717(2)
Zr1Q Zr 0.29283(2) 0.77208(2) 0.70717(2)
Zr1T Zr 0.77208(2) 0.70717(2) 0.29283(2)
Zr1T_2 Zr 0.77208(2) 0.70717(2) 1.29283(2)
Zr1U Zr 0.77208(2) 0.29283(2) 0.70717(2)
Zr1V Zr 1.22792(2) 0.70717(2) 0.70717(2)
Zr1Y Zr 0.79283(2) 0.79283(2) 0.27208(2)
Zr1Y_2 Zr 0.79283(2) 0.79283(2) 1.27208(2)
Zr1Z Zr 0.79283(2) 0.20717(2) 0.72792(2)
Zr1Z_2 Zr 0.79283(2) 1.20717(2) 0.72792(2)
Zr1AA Zr 1.20717(2) 0.79283(2) 0.72792(2)
Zr1CA Zr 0.27208(2) 0.79283(2) 0.79283(2)
Zr1DA Zr 0.72792(2) 0.79283(2) 1.20717(2)
Zr1EA Zr 0.72792(2) 0.20717(2) 0.79283(2)
Zr1EA_2 Zr 0.72792(2) 1.20717(2) 0.79283(2)
Zr1GA Zr 0.79283(2) 0.27208(2) 0.79283(2)
Zr1KA Zr 0.79283(2) 0.79283(2) 0.72792(2)
Zr1LA Zr 1.20717(2) 0.79283(2) 0.27208(2)
Zr1OA Zr 0.79283(2) 0.27208(2) 1.20717(2)
Zr1RA Zr 0.27208(2) 1.20717(2) 0.79283(2)
Zr1TA Zr 0.72792(2) 0.20717(2) 1.20717(2)
O1L O 0.67180(13) 0.72259(14) 1.18603(13)
O1N O 0.67180(13) 0.27741(14) 0.81397(13)
O1P O 0.72259(14) 0.81397(13) 1.32820(13)
O1S O 0.72259(14) 0.18603(13) 0.67180(13)
O1S_2 O 0.72259(14) 1.18603(13) 0.67180(13)
O1IA O 0.82820(13) 0.68603(13) 1.22259(14)
O1EB_2 O 0.67180(13) 0.18603(13) 0.72259(14)
O1GB O 0.67180(13) 0.81397(13) 1.27741(14)
O1IB O 0.67180(13) 0.72259(14) 0.81397(13)
O1KB O 0.67180(13) 0.27741(14) 1.18603(13)
O1NB O 0.72259(14) 0.81397(13) 0.67180(13)
O1SB O 0.81397(13) 0.67180(13) 0.72259(14)
O1XB O 0.68603(13) 0.77741(14) 0.82820(13)
O1BC O 0.82820(13) 0.68603(13) 0.77741(14)
O3C O 0.71736(16) 0.28264(16) 1.28264(16)
O3N_2 O 0.71736(16) 1.28264(16) 0.71736(16)
O3Y O 0.78264(16) 0.78264(16) 1.21736(16)
O4T O 0.8060(3) 0.7416(2) 1.2584(2)
O4Y O 0.7584(2) 0.7584(2) 1.3060(3)
O4Z O 0.7584(2) 0.2416(2) 0.6940(3)
O4Z_2 O 0.7584(2) 1.2416(2) 0.6940(3)
O4DA O 0.6940(3) 0.7584(2) 1.2416(2)
O4EA O 0.6940(3) 0.2416(2) 0.7584(2)
O4EA_2 O 0.6940(3) 1.2416(2) 0.7584(2)
O4GA O 0.7584(2) 0.3060(3) 0.7584(2)
O4KA O 0.7584(2) 0.7584(2) 0.6940(3)
O4OA O 0.7584(2) 0.3060(3) 1.2416(2)
O4TA O 0.6940(3) 0.2416(2) 1.2416(2)
loop_
_geom_bond_atom_site_label_1
_geom_bond_atom_site_label_2
_geom_bond_site_symmetry_1
_geom_bond_site_symmetry_2
Zr1 O1 1_555 1_555
Cu1 N1 1_555 1_555
O1 C1 1_555 1_555
O2 Zr1 1_555 1_555
O3 Zr1 1_555 1_555
O4 Zr1 1_555 1_555
N1 C7 1_555 1_555
C1 C2 1_555 1_555
C2 C3 1_555 1_555
C3 H1 1_555 1_555
C4 C3 1_555 1_555
H2 C4 1_555 1_555
C5 C4 1_555 1_555
C6 C5 1_555 1_555
C7 C6 1_555 1_555
C8 C7 1_555 1_555
H3 C8 1_555 1_555
O1PA C1 1_555 1_555
N1PA Cu1 1_555 1_555
C3PA C2 1_555 1_555
H1PA C3PA 1_555 1_555
C4PA C5 1_555 1_555
H2PA C4PA 1_555 1_555
C7PA C6 1_555 1_555
C8PA C7PA 1_555 1_555
H3PA C8PA 1_555 1_555
O1WA C1WA 1_555 1_555
C1WA C2WA 1_555 1_555
C2WA C3WA 1_555 1_555
C3WA H1WA 1_555 1_555
C4WA C3WA 1_555 1_555
H2WA C4WA 1_555 1_555
C5WA C4WA 1_555 1_555
C6WA C5WA 1_555 1_555
C7WA N1 1_555 1_555
C8WA C8 1_555 1_555
H3WA C8WA 1_555 1_555
O1JC C1WA 1_555 1_555
N1OA Cu1 1_555 1_555
C3JC C2WA 1_555 1_555
H1JC C3JC 1_555 1_555
C4JC C5WA 1_555 1_555
H2JC C4JC 1_555 1_555
C7JC C6WA 1_555 1_555
C8JC C7JC 1_555 1_555
H3JC C8JC 1_555 1_555
O1MC C1XA 1_555 1_555
C1XA C2XA 1_555 1_555
C2XA C3MC 1_555 1_555
C3MC H1MC 1_555 1_555
C4MC C3MC 1_555 1_555
H2MC C4MC 1_555 1_555
C5XA C4MC 1_555 1_555
C6XA C5XA 1_555 1_555
C7MC N1PA 1_555 1_555
C8MC C8PA 1_555 1_555
H3MC C8MC 1_555 1_555
O1OA C1C 1_555 1_555
C1C C2C 1_555 1_555
C2C C3OA 1_555 1_555
C3OA H1OA 1_555 1_555
C4OA C3OA 1_555 1_555
H2OA C4OA 1_555 1_555
C5C C4OA 1_555 1_555
C6C C5C 1_555 1_555
C7OA N1OA 1_555 1_555
C8OA C8JC 1_555 1_555
H3OA C8OA 1_555 1_555
O1XA C1XA 1_555 1_555
N1C Cu1 1_555 1_555
C3XA C2XA 1_555 1_555
H1XA C3XA 1_555 1_555
C4XA C5XA 1_555 1_555
H2XA C4XA 1_555 1_555
C7XA C6XA 1_555 1_555
C8XA C7XA 1_555 1_555
H3XA C8XA 1_555 1_555
O1C C1C 1_555 1_555
C3C C2C 1_555 1_555
H1C C3C 1_555 1_555
C4C C5C 1_555 1_555
H2C C4C 1_555 1_555
C7C C6C 1_555 1_555
C8C C8XA 1_555 1_555
H3C C8C 1_555 1_555
Zr1C O1C 1_555 1_555
O2C Zr1C 1_555 1_555
O4C Zr1C 1_555 1_555
Zr1D O3 1_555 1_555
Cu1D N1D 1_555 1_555
O1D Zr1D 1_555 1_555
O2D Zr1D 1_555 1_555
O4D Zr1D 1_555 1_555
N1D C7D 1_555 1_555
C1D O1D 1_555 1_555
C2D C1D 1_555 1_555
C3D C2D 1_555 1_555
H1D C3D 1_555 1_555
C4D C3D 1_555 1_555
H2D C4D 1_555 1_555
C5D C4D 1_555 1_555
C6D C5D 1_555 1_555
C7D C6D 1_555 1_555
C8D C7D 1_555 1_555
H3D C8D 1_555 1_555
O1KA C1D 1_555 1_555
N1KA Cu1D 1_555 1_555
C3KA C2D 1_555 1_555
H1KA C3KA 1_555 1_555
C4KA C5D 1_555 1_555
H2KA C4KA 1_555 1_555
C7KA C6D 1_555 1_555
C8KA C7KA 1_555 1_555
H3KA C8KA 1_555 1_555
O1AB C1AB 1_555 1_555
C1AB C2AB 1_555 1_555
C2AB C3AB 1_555 1_555
C3AB H1AB 1_555 1_555
C4AB C3AB 1_555 1_555
H2AB C4AB 1_555 1_555
C5AB C4AB 1_555 1_555
C6AB C5AB 1_555 1_555
C7AB N1D 1_555 1_555
C8AB C8D 1_555 1_555
H3AB C8AB 1_555 1_555
O1IC C1AB 1_555 1_555
N1LA Cu1D 1_555 1_555
C3IC C2AB 1_555 1_555
H1IC C3IC 1_555 1_555
C4IC C5AB 1_555 1_555
H2IC C4IC 1_555 1_555
C7IC C6AB 1_555 1_555
C8IC C7IC 1_555 1_555
H3IC C8IC 1_555 1_555
O1FC C1BB 1_555 1_555
C1BB C2BB 1_555 1_555
C2BB C3FC 1_555 1_555
C3FC H1FC 1_555 1_555
C4FC C3FC 1_555 1_555
H2FC C4FC 1_555 1_555
C5BB C4FC 1_555 1_555
C6BB C5BB 1_555 1_555
C7FC N1KA 1_555 1_555
C8FC C8KA 1_555 1_555
H3FC C8FC 1_555 1_555
O1LA C1G 1_555 1_555
C1G C2G 1_555 1_555
C2G C3LA 1_555 1_555
C3LA H1LA 1_555 1_555
C4LA C3LA 1_555 1_555
H2LA C4LA 1_555 1_555
C5G C4LA 1_555 1_555
C6G C5G 1_555 1_555
C7LA N1LA 1_555 1_555
C8LA C8IC 1_555 1_555
H3LA C8LA 1_555 1_555
O1BB C1BB 1_555 1_555
N1G Cu1D 1_555 1_555
C3BB C2BB 1_555 1_555
H1BB C3BB 1_555 1_555
C4BB C5BB 1_555 1_555
H2BB C4BB 1_555 1_555
C7BB C6BB 1_555 1_555
C8BB C7BB 1_555 1_555
H3BB C8BB 1_555 1_555
O1G C1G 1_555 1_555
C3G C2G 1_555 1_555
H1G C3G 1_555 1_555
C4G C5G 1_555 1_555
H2G C4G 1_555 1_555
C7G C6G 1_555 1_555
C8G C8BB 1_555 1_555
H3G C8G 1_555 1_555
Zr1H O3 1_555 1_555
Cu1H N1H 1_555 1_555
O1H Zr1H 1_555 1_555
O2H Zr1H 1_555 1_555
O4H Zr1H 1_555 1_555
N1H C7H 1_555 1_555
C1H O1H 1_555 1_555
C2H C1H 1_555 1_555
C3H C2H 1_555 1_555
H1H C3H 1_555 1_555
C4H C3H 1_555 1_555
H2H C4H 1_555 1_555
C5H C4H 1_555 1_555
C6H C5H 1_555 1_555
C7H C6H 1_555 1_555
C8H C7H 1_555 1_555
H3H C8H 1_555 1_555
O1UA C1H 1_555 1_555
N1UA Cu1H 1_555 1_555
C3UA C2H 1_555 1_555
H1UA C3UA 1_555 1_555
C4UA C5H 1_555 1_555
H2UA C4UA 1_555 1_555
C7UA C6H 1_555 1_555
C8UA C7UA 1_555 1_555
H3UA C8UA 1_555 1_555
O1EB C1EB 1_555 1_555
C1EB C2EB 1_555 1_555
C2EB C3EB 1_555 1_555
C3EB H1EB 1_555 1_555
C4EB C3EB 1_555 1_555
H2EB C4EB 1_555 1_555
C5EB C4EB 1_555 1_555
C6EB C5EB 1_555 1_555
C7EB N1H 1_555 1_555
C8EB C8H 1_555 1_555
H3EB C8EB 1_555 1_555
O1OC C1EB 1_555 1_555
N1RA Cu1H 1_555 1_555
C3OC C2EB 1_555 1_555
H1OC C3OC 1_555 1_555
C4OC C5EB 1_555 1_555
H2OC C4OC 1_555 1_555
C7OC C6EB 1_555 1_555
C8OC C7OC 1_555 1_555
H3OC C8OC 1_555 1_555
O1PC C1FB 1_555 1_555
C1FB C2FB 1_555 1_555
C2FB C3PC 1_555 1_555
C3PC H1PC 1_555 1_555
C4PC C3PC 1_555 1_555
H2PC C4PC 1_555 1_555
C5FB C4PC 1_555 1_555
C6FB C5FB 1_555 1_555
C7PC N1UA 1_555 1_555
C8PC C8UA 1_555 1_555
H3PC C8PC 1_555 1_555
O1RA C1K 1_555 1_555
C1K C2K 1_555 1_555
C2K C3RA 1_555 1_555
C3RA H1RA 1_555 1_555
C4RA C3RA 1_555 1_555
H2RA C4RA 1_555 1_555
C5K C4RA 1_555 1_555
C6K C5K 1_555 1_555
C7RA N1RA 1_555 1_555
C8RA C8OC 1_555 1_555
H3RA C8RA 1_555 1_555
O1FB C1FB 1_555 1_555
N1K Cu1H 1_555 1_555
C3FB C2FB 1_555 1_555
H1FB C3FB 1_555 1_555
C4FB C5FB 1_555 1_555
H2FB C4FB 1_555 1_555
C7FB C6FB 1_555 1_555
C8FB C7FB 1_555 1_555
H3FB C8FB 1_555 1_555
O1K C1K 1_555 1_555
C3K C2K 1_555 1_555
H1K C3K 1_555 1_555
C4K C5K 1_555 1_555
H2K C4K 1_555 1_555
C7K C6K 1_555 1_555
C8K C8FB 1_555 1_555
H3K C8K 1_555 1_555
Zr1L O1WA 1_555 1_555
O2L Zr1L 1_555 1_555
O3L Zr1L 1_555 1_555
O4L Zr1L 1_555 1_555
Zr1N O1XA 1_555 1_555
O2N Zr1N 1_555 1_555
O3N Zr1N 1_555 1_555
O4N Zr1N 1_555 1_555
Zr1P O3L 1_555 1_555
O2P Zr1P 1_555 1_555
O4P Zr1P 1_555 1_555
Zr1S O3N 1_555 1_555
O2S Zr1S 1_555 1_555
O4S Zr1S 1_555 1_555
Zr1S_2 O1EB 1_555 1_555
O2S_2 Zr1S_2 1_555 1_555
O4S_2 Zr1S_2 1_555 1_555
Zr1UA O4 1_555 1_555
O2UA Zr1UA 1_555 1_555
O3KA Zr1UA 1_555 1_555
O4UA Zr1 1_555 1_555
Zr1PA O4 1_555 1_555
O2PA Zr1PA 1_555 1_555
O4PA Zr1 1_555 1_555
Zr1IA O1JC 1_555 1_555
O2IA Zr1IA 1_555 1_555
O4IA Zr1L 1_555 1_555
Zr1G O1G 1_555 1_555
Zr1K O1K 1_555 1_555
Zr1Q O1FB 1_555 1_555
Zr1T O1BB 1_555 1_555
Zr1T_2 O3L 1_555 1_555
Zr1U O3N 1_555 1_555
Zr1V O1AB 1_555 1_555
Zr1Y O1FC 1_555 1_555
Zr1Y_2 O4P 1_555 1_555
Zr1Z O4S 1_555 1_555
Zr1Z_2 O4S_2 1_555 1_555
Zr1AA O1IC 1_555 1_555
Zr1CA O1PC 1_555 1_555
Zr1DA O4L 1_555 1_555
Zr1EA O4N 1_555 1_555
Zr1EA_2 O1OC 1_555 1_555
Zr1GA O1MC 1_555 1_555
Zr1KA O4D 1_555 1_555
Zr1LA O1LA 1_555 1_555
Zr1OA O1OA 1_555 1_555
Zr1RA O1RA 1_555 1_555
Zr1TA O4C 1_555 1_555
O1L Zr1L 1_555 1_555
O1N Zr1N 1_555 1_555
O1P Zr1P 1_555 1_555
O1S Zr1S 1_555 1_555
O1S_2 Zr1S_2 1_555 1_555
O1IA Zr1IA 1_555 1_555
O1EB_2 Zr1S 1_555 1_555
O1GB Zr1P 1_555 1_555
O1IB Zr1 1_555 1_555
O1KB Zr1C 1_555 1_555
O1NB Zr1H 1_555 1_555
O1SB Zr1D 1_555 1_555
O1XB Zr1UA 1_555 1_555
O1BC Zr1PA 1_555 1_555
O3C Zr1C 1_555 1_555
O3N_2 Zr1S_2 1_555 1_555
O3Y Zr1IA 1_555 1_555
O4T Zr1IA 1_555 1_555
O4Y Zr1P 1_555 1_555
O4Z Zr1S 1_555 1_555
O4Z_2 Zr1S_2 1_555 1_555
O4DA Zr1L 1_555 1_555
O4EA Zr1N 1_555 1_555
O4EA_2 Zr1S_2 1_555 1_555
O4GA Zr1N 1_555 1_555
O4KA Zr1D 1_555 1_555
O4OA Zr1C 1_555 1_555
O4TA Zr1C 1_555 1_555
O1PA Zr1PA 1_555 1_555
N1PA C7PA 1_555 1_555
C3PA C4PA 1_555 1_555
C6WA C7WA 1_555 1_555
C7WA C8WA 1_555 1_555
N1OA C7JC 1_555 1_555
C3JC C4JC 1_555 1_555
C6XA C7MC 1_555 1_555
C7MC C8MC 1_555 1_555
C6C C7OA 1_555 1_555
C7OA C8OA 1_555 1_555
N1C C7XA 1_555 1_555
N1C C7C 1_555 1_555
C3XA C4XA 1_555 1_555
C3C C4C 1_555 1_555
C7C C8C 1_555 1_555
O4C Zr1OA 1_555 1_555
Zr1D O4PA 1_555 1_555
O4D Zr1PA 1_555 1_555
O1KA Zr1KA 1_555 1_555
N1KA C7KA 1_555 1_555
C3KA C4KA 1_555 1_555
C6AB C7AB 1_555 1_555
C7AB C8AB 1_555 1_555
N1LA C7IC 1_555 1_555
C3IC C4IC 1_555 1_555
C6BB C7FC 1_555 1_555
C7FC C8FC 1_555 1_555
C6G C7LA 1_555 1_555
C7LA C8LA 1_555 1_555
N1G C7BB 1_555 1_555
N1G C7G 1_555 1_555
C3BB C4BB 1_555 1_555
C3G C4G 1_555 1_555
C7G C8G 1_555 1_555
Zr1H O4UA 1_555 1_555
Zr1H O4KA 1_555 1_555
O4H Zr1UA 1_555 1_555
O4H Zr1KA 1_555 1_555
O1UA Zr1UA 1_555 1_555
N1UA C7UA 1_555 1_555
C3UA C4UA 1_555 1_555
C6EB C7EB 1_555 1_555
C7EB C8EB 1_555 1_555
N1RA C7OC 1_555 1_555
C3OC C4OC 1_555 1_555
C6FB C7PC 1_555 1_555
C7PC C8PC 1_555 1_555
C6K C7RA 1_555 1_555
C7RA C8RA 1_555 1_555
N1K C7FB 1_555 1_555
N1K C7K 1_555 1_555
C3FB C4FB 1_555 1_555
C3K C4K 1_555 1_555
C7K C8K 1_555 1_555
O4L Zr1IA 1_555 1_555
O4N Zr1GA 1_555 1_555
Zr1P O4DA 1_555 1_555
O4P Zr1DA 1_555 1_555
Zr1S O4EA 1_555 1_555
O4S Zr1EA 1_555 1_555
O4S_2 Zr1EA_2 1_555 1_555
Zr1UA O4UA 1_555 1_555
O3KA Zr1PA 1_555 1_555
O3KA Zr1KA 1_555 1_555
Zr1PA O4PA 1_555 1_555
Zr1IA O4IA 1_555 1_555
O4IA Zr1T_2 1_555 1_555
Zr1T_2 O4T 1_555 1_555
Zr1T_2 O4Y 1_555 1_555
Zr1U O4Z 1_555 1_555
Zr1U O4GA 1_555 1_555
Zr1Y_2 O3Y 1_555 1_555
Zr1Y_2 O4T 1_555 1_555
Zr1Y_2 O4Y 1_555 1_555
Zr1Z O4Z 1_555 1_555
Zr1Z_2 O4Z_2 1_555 1_555
Zr1DA O3Y 1_555 1_555
Zr1DA O4DA 1_555 1_555
Zr1EA O4EA 1_555 1_555
Zr1EA_2 O4EA_2 1_555 1_555
Zr1GA O4GA 1_555 1_555
Zr1KA O4KA 1_555 1_555
Zr1OA O4OA 1_555 1_555
Zr1TA O4TA 1_555 1_555

#END
