
#######################################################################
#
#                 Cambridge Crystallographic Data Centre
#                                CCDC 
#
#######################################################################
#
# If this CIF has been generated from an entry in the Cambridge 
# Structural Database, then it will include bibliographic, chemical, 
# crystal, experimental, refinement or atomic coordinate data resulting 
# from the CCDC's data processing and validation procedures.
#
#######################################################################

data_XICYOZ
_chemical_name_common            DUT-68(Hf)
_chemical_formula_moiety         '(C84 H28 Hf15 O88 S14)n'
_chemical_name_systematic        
catena-[decakis(\m~4~-thiophene-2,5-dicarboxylato)-icosakis(\m~3~-oxo)-tetrakis(\m~2~-thiophene-2,5-dicarboxylato)-dodecaoxo-pentadeca-hafnium]
_symmetry_cell_setting           cubic
_symmetry_space_group_name_H-M   'I m -3 m'
_symmetry_Int_Tables_number      229
_space_group_name_Hall           '-I 4 2 3'
loop_
_symmetry_equiv_pos_site_id
_symmetry_equiv_pos_as_xyz
1 x,y,z
2 -x,-y,z
3 -x,y,-z
4 x,-y,-z
5 z,x,y
6 z,-x,-y
7 -z,-x,y
8 -z,x,-y
9 y,z,x
10 -y,z,-x
11 y,-z,-x
12 -y,-z,x
13 y,x,-z
14 -y,-x,-z
15 y,-x,z
16 -y,x,z
17 x,z,-y
18 -x,z,y
19 -x,-z,-y
20 x,-z,y
21 z,y,-x
22 z,-y,x
23 -z,y,x
24 -z,-y,-x
25 1/2+x,1/2+y,1/2+z
26 1/2-x,1/2-y,1/2+z
27 1/2-x,1/2+y,1/2-z
28 1/2+x,1/2-y,1/2-z
29 1/2+z,1/2+x,1/2+y
30 1/2+z,1/2-x,1/2-y
31 1/2-z,1/2-x,1/2+y
32 1/2-z,1/2+x,1/2-y
33 1/2+y,1/2+z,1/2+x
34 1/2-y,1/2+z,1/2-x
35 1/2+y,1/2-z,1/2-x
36 1/2-y,1/2-z,1/2+x
37 1/2+y,1/2+x,1/2-z
38 1/2-y,1/2-x,1/2-z
39 1/2+y,1/2-x,1/2+z
40 1/2-y,1/2+x,1/2+z
41 1/2+x,1/2+z,1/2-y
42 1/2-x,1/2+z,1/2+y
43 1/2-x,1/2-z,1/2-y
44 1/2+x,1/2-z,1/2+y
45 1/2+z,1/2+y,1/2-x
46 1/2+z,1/2-y,1/2+x
47 1/2-z,1/2+y,1/2+x
48 1/2-z,1/2-y,1/2-x
49 -x,-y,-z
50 x,y,-z
51 x,-y,z
52 -x,y,z
53 -z,-x,-y
54 -z,x,y
55 z,x,-y
56 z,-x,y
57 -y,-z,-x
58 y,-z,x
59 -y,z,x
60 y,z,-x
61 -y,-x,z
62 y,x,z
63 -y,x,-z
64 y,-x,-z
65 -x,-z,y
66 x,-z,-y
67 x,z,y
68 -x,z,-y
69 -z,-y,x
70 -z,y,-x
71 z,-y,-x
72 z,y,x
73 1/2-x,1/2-y,1/2-z
74 1/2+x,1/2+y,1/2-z
75 1/2+x,1/2-y,1/2+z
76 1/2-x,1/2+y,1/2+z
77 1/2-z,1/2-x,1/2-y
78 1/2-z,1/2+x,1/2+y
79 1/2+z,1/2+x,1/2-y
80 1/2+z,1/2-x,1/2+y
81 1/2-y,1/2-z,1/2-x
82 1/2+y,1/2-z,1/2+x
83 1/2-y,1/2+z,1/2+x
84 1/2+y,1/2+z,1/2-x
85 1/2-y,1/2-x,1/2+z
86 1/2+y,1/2+x,1/2+z
87 1/2-y,1/2+x,1/2-z
88 1/2+y,1/2-x,1/2-z
89 1/2-x,1/2-z,1/2+y
90 1/2+x,1/2-z,1/2-y
91 1/2+x,1/2+z,1/2+y
92 1/2-x,1/2+z,1/2-y
93 1/2-z,1/2-y,1/2+x
94 1/2-z,1/2+y,1/2-x
95 1/2+z,1/2-y,1/2-x
96 1/2+z,1/2+y,1/2+x
_cell_length_a                   53.510(6)
_cell_length_b                   53.510(6)
_cell_length_c                   53.510(6)
_cell_angle_alpha                90
_cell_angle_beta                 90
_cell_angle_gamma                90
_cell_volume                     153216
_exptl_crystal_colour            colorless
_exptl_crystal_description       cubic
_cell_formula_units_Z            24
loop_
_atom_site_label
_atom_site_type_symbol
_atom_site_fract_x
_atom_site_fract_y
_atom_site_fract_z
_atom_site_U_iso_or_equiv
_atom_site_thermal_displace_type
Hf1 Hf 0.362251(6) 0.408681(6) 0.212352(6) 0.0184 Uani
Hf2 Hf 0.345738(5) 0.345738(5) 0.216029(8) 0.0147 Uani
Hf3 Hf 0.332899(6) 0.379548(7) 0.161306(6) 0.0231 Uani
Hf4 Hf 0.395645(5) 0.395645(5) 0.157375(8) 0.0114 Uani
Hf5 Hf 0.2500 0.467080(6) 0.032920(6) 0.0204 Uani
Hf6 Hf 0.295928(11) 0.5000 0.0000 0.0125 Uani
S1 S 0.32048(5) 0.43464(7) 0.08587(5) 0.0495 Uani
S2 S 0.2500 0.33728(5) 0.16272(5) 0.0456 Uani
S3 S 0.29078(6) 0.36910(7) 0.29078(6) 0.0381 Uani
S4 S 0.38323(8) 0.5000 0.19164(7) 0.0427 Uani
O1 O 0.37890(11) 0.41453(11) 0.12495(11) 0.0220 Uani
O2 O 0.33767(12) 0.40661(16) 0.12907(14) 0.0413 Uani
O3 O 0.28767(12) 0.45756(15) 0.04928(14) 0.0387 Uani
O4 O 0.31736(11) 0.47568(11) 0.02551(10) 0.0223 Uani
O5 O 0.29809(12) 0.35932(16) 0.17285(14) 0.0447 Uani
O6 O 0.30555(11) 0.33966(13) 0.20940(12) 0.0303 Uani
O7 O 0.32723(11) 0.36239(11) 0.24908(11) 0.0240 Uani
O8 O 0.33957(14) 0.40268(13) 0.24763(13) 0.0407 Uani
O9 O 0.37669(14) 0.44517(11) 0.19640(13) 0.0363 Uani
O10 O 0.40065(11) 0.43537(10) 0.16283(11) 0.0213 Uani
O11 O 0.36179(10) 0.40159(11) 0.17464(11) 0.0207 Uani
O12 O 0.33059(12) 0.38352(12) 0.20257(12) 0.0277 Uani
O13 O 0.37266(10) 0.37266(10) 0.22152(16) 0.0230 Uani
O14 O 0.40125(12) 0.40125(12) 0.20049(17) 0.0260 Uani
O15 O 0.34743(12) 0.34743(12) 0.17759(15) 0.0250 Uani
O16 O 0.36804(11) 0.36804(11) 0.14151(17) 0.0267 Uani
O17 O 0.38193(16) 0.42671(16) 0.24252(14) 0.0490 Uani
O18 O 0.33148(17) 0.43515(16) 0.2107(2) 0.0660 Uani
O19 O 0.31772(16) 0.36148(19) 0.12840(14) 0.0560 Uani
O20 O 0.25308(15) 0.42688(15) 0.0312(2) 0.0580 Uani
O21 O 0.26971(13) 0.5000 0.02806(13) 0.0143 Uani
O22 O 0.27532(15) 0.46223(14) 0.0000 0.0207 Uani
C1 C 0.35630(18) 0.41676(19) 0.11829(17) 0.0307 Uani
C2 C 0.35080(18) 0.4318(2) 0.09593(19) 0.0387 Uani
C3 C 0.3667(2) 0.4456(3) 0.0815(2) 0.0603 Uani
H1 H 0.3838 0.4465 0.0842 0.0720 Uiso
C4 C 0.3540(2) 0.4583(3) 0.0621(3) 0.0643 Uani
H2 H 0.3619 0.4689 0.0508 0.0770 Uiso
C5 C 0.32896(18) 0.4533(2) 0.06170(19) 0.0363 Uani
C6 C 0.30990(17) 0.46336(19) 0.04370(16) 0.0297 Uani
C7 C 0.29291(18) 0.3441(2) 0.19022(19) 0.0347 Uani
C8 C 0.26965(17) 0.3294(2) 0.18744(19) 0.0343 Uani
C9 C 0.26113(19) 0.3093(2) 0.1999(2) 0.0413 Uani
H3 H 0.2695 0.3022 0.2135 0.0500 Uiso
C10 C 0.32727(17) 0.38425(17) 0.25673(17) 0.0287 Uani
C11 C 0.3107(2) 0.3908(2) 0.2783(2) 0.0450 Uani
C12 C 0.3080(3) 0.4132(2) 0.2895(3) 0.0737 Uani
H4 H 0.3175 0.4272 0.2854 0.0880 Uiso
C13 C 0.39050(18) 0.45043(16) 0.17809(17) 0.0283 Uani
C14 C 0.3949(2) 0.47709(17) 0.1726(2) 0.0433 Uani
C15 C 0.4070(3) 0.4870(2) 0.1525(3) 0.0730 Uani
H5 H 0.4145 0.4774 0.1400 0.0870 Uiso
S5 S 0.3076(3) 0.3845(3) 0.0582(2) 0.0553 Uani
O23 O 0.2905(9) 0.4140(6) 0.0136(6) 0.0780 Uani
O24 O 0.3450(6) 0.3632(5) 0.0946(5) 0.0780 Uani
C16 C 0.2730(8) 0.4137(6) 0.0317(8) 0.0373 Uani
C17 C 0.2788(8) 0.4003(7) 0.0560(8) 0.0373 Uani
C18 C 0.3248(6) 0.3667(3) 0.1063(4) 0.0613 Uani
C19 C 0.3035(10) 0.3773(9) 0.0907(8) 0.0613 Uani
O25 O 0.30453(16) 0.40791(18) 0.1644(2) 0.0657 Uani
C20 C 0.2786(10) 0.3870(8) 0.0964(11) 0.0617 Uani
H6 H 0.2720 0.3852 0.1124 0.0780 Uiso
C21 C 0.2658(11) 0.3981(8) 0.0793(11) 0.0617 Uani
H7 H 0.2497 0.4040 0.0818 0.0780 Uiso
O5PA O 0.20191(12) 0.32715(14) 0.14068(16) 0.0447 Uani
O6PA O 0.19445(11) 0.29060(12) 0.16034(13) 0.0303 Uani
C7PA C 0.20709(18) 0.30978(19) 0.1559(2) 0.0347 Uani
C8PA C 0.23035(17) 0.31256(19) 0.1706(2) 0.0343 Uani
C9PA C 0.23887(19) 0.3001(2) 0.1907(2) 0.0413 Uani
H3PA H 0.2305 0.2865 0.1978 0.0500 Uiso
O7SB O 0.24908(11) 0.36239(11) 0.32723(11) 0.0240 Uani
O8SB O 0.24763(13) 0.40268(13) 0.33957(14) 0.0407 Uani
C10SB C 0.25673(17) 0.38425(17) 0.32727(17) 0.0287 Uani
C11SB C 0.2783(2) 0.3908(2) 0.3107(2) 0.0450 Uani
C12SB C 0.2895(3) 0.4132(2) 0.3080(3) 0.0737 Uani
H4SB H 0.2854 0.4272 0.3175 0.0880 Uiso
O9XA O 0.37669(14) 0.55483(11) 0.19640(13) 0.0363 Uani
O10XA O 0.40065(11) 0.56463(10) 0.16283(11) 0.0213 Uani
C13XA C 0.39050(18) 0.54957(16) 0.17809(17) 0.0283 Uani
C14XA C 0.3949(2) 0.52291(17) 0.1726(2) 0.0433 Uani
C15XA C 0.4070(3) 0.5130(2) 0.1525(3) 0.0730 Uani
H5XA H 0.4145 0.5226 0.1400 0.0870 Uiso
Hf1C Hf 0.362251(6) 0.591319(6) -0.212352(6) 0.0184 Uani
Hf2C Hf 0.345738(5) 0.654262(5) -0.216029(8) 0.0147 Uani
Hf3C Hf 0.332899(6) 0.620452(7) -0.161306(6) 0.0231 Uani
Hf4C Hf 0.395645(5) 0.604355(5) -0.157375(8) 0.0114 Uani
Hf5C Hf 0.2500 0.532920(6) -0.032920(6) 0.0204 Uani
S1C S 0.32048(5) 0.56536(7) -0.08587(5) 0.0495 Uani
S2C S 0.2500 0.66272(5) -0.16272(5) 0.0456 Uani
S3C S 0.29078(6) 0.63090(7) -0.29078(6) 0.0381 Uani
S4C S 0.38323(8) 0.5000 -0.19164(7) 0.0427 Uani
O1C O 0.37890(11) 0.58547(11) -0.12495(11) 0.0220 Uani
O2C O 0.33767(12) 0.59339(16) -0.12907(14) 0.0413 Uani
O3C O 0.28767(12) 0.54244(15) -0.04928(14) 0.0387 Uani
O4C O 0.31736(11) 0.52432(11) -0.02551(10) 0.0223 Uani
O5C O 0.29809(12) 0.64068(16) -0.17285(14) 0.0447 Uani
O6C O 0.30555(11) 0.66034(13) -0.20940(12) 0.0303 Uani
O7C O 0.32723(11) 0.63761(11) -0.24908(11) 0.0240 Uani
O8C O 0.33957(14) 0.59732(13) -0.24763(13) 0.0407 Uani
O9C O 0.37669(14) 0.55483(11) -0.19640(13) 0.0363 Uani
O10C O 0.40065(11) 0.56463(10) -0.16283(11) 0.0213 Uani
O11C O 0.36179(10) 0.59841(11) -0.17464(11) 0.0207 Uani
O12C O 0.33059(12) 0.61648(12) -0.20257(12) 0.0277 Uani
O13C O 0.37266(10) 0.62734(10) -0.22152(16) 0.0230 Uani
O14C O 0.40125(12) 0.59875(12) -0.20049(17) 0.0260 Uani
O15C O 0.34743(12) 0.65257(12) -0.17759(15) 0.0250 Uani
O16C O 0.36804(11) 0.63196(11) -0.14151(17) 0.0267 Uani
O17C O 0.38193(16) 0.57329(16) -0.24252(14) 0.0490 Uani
O18C O 0.33148(17) 0.56485(16) -0.2107(2) 0.0660 Uani
O19C O 0.31772(16) 0.63852(19) -0.12840(14) 0.0560 Uani
O20C O 0.25308(15) 0.57312(15) -0.0312(2) 0.0580 Uani
O21C O 0.26971(13) 0.5000 -0.02806(13) 0.0143 Uani
O22C O 0.27532(15) 0.53777(14) 0.0000 0.0207 Uani
C1C C 0.35630(18) 0.58324(19) -0.11829(17) 0.0307 Uani
C2C C 0.35080(18) 0.5682(2) -0.09593(19) 0.0387 Uani
C3C C 0.3667(2) 0.5544(3) -0.0815(2) 0.0603 Uani
H1C H 0.3838 0.5535 -0.0842 0.0720 Uiso
C4C C 0.3540(2) 0.5417(3) -0.0621(3) 0.0643 Uani
H2C H 0.3619 0.5311 -0.0508 0.0770 Uiso
C5C C 0.32896(18) 0.5467(2) -0.06170(19) 0.0363 Uani
C6C C 0.30990(17) 0.53664(19) -0.04370(16) 0.0297 Uani
C7C C 0.29291(18) 0.6559(2) -0.19022(19) 0.0347 Uani
C8C C 0.26965(17) 0.6706(2) -0.18744(19) 0.0343 Uani
C9C C 0.26113(19) 0.6907(2) -0.1999(2) 0.0413 Uani
H3C H 0.2695 0.6978 -0.2135 0.0500 Uiso
C10C C 0.32727(17) 0.61575(17) -0.25673(17) 0.0287 Uani
C11C C 0.3107(2) 0.6092(2) -0.2783(2) 0.0450 Uani
C12C C 0.3080(3) 0.5868(2) -0.2895(3) 0.0737 Uani
H4C H 0.3175 0.5728 -0.2854 0.0880 Uiso
C13C C 0.39050(18) 0.54957(16) -0.17809(17) 0.0283 Uani
C14C C 0.3949(2) 0.52291(17) -0.1726(2) 0.0433 Uani
C15C C 0.4070(3) 0.5130(2) -0.1525(3) 0.0730 Uani
H5C H 0.4145 0.5226 -0.1400 0.0870 Uiso
S5C S 0.3076(3) 0.6155(3) -0.0582(2) 0.0553 Uani
O23C O 0.2905(9) 0.5860(6) -0.0136(6) 0.0780 Uani
O24C O 0.3450(6) 0.6368(5) -0.0946(5) 0.0780 Uani
C16C C 0.2730(8) 0.5863(6) -0.0317(8) 0.0373 Uani
C17C C 0.2788(8) 0.5997(7) -0.0560(8) 0.0373 Uani
C18C C 0.3248(6) 0.6333(3) -0.1063(4) 0.0613 Uani
C19C C 0.3035(10) 0.6227(9) -0.0907(8) 0.0613 Uani
O25C O 0.30453(16) 0.59209(18) -0.1644(2) 0.0657 Uani
C20C C 0.2786(10) 0.6130(8) -0.0964(11) 0.0617 Uani
H6C H 0.2720 0.6148 -0.1124 0.0780 Uiso
C21C C 0.2658(11) 0.6019(8) -0.0793(11) 0.0617 Uani
H7C H 0.2497 0.5960 -0.0818 0.0780 Uiso
O5OA O 0.20191(12) 0.67285(14) -0.14068(16) 0.0447 Uani
O6OA O 0.19445(11) 0.70940(12) -0.16034(13) 0.0303 Uani
C7OA C 0.20709(18) 0.69022(19) -0.1559(2) 0.0347 Uani
C8OA C 0.23035(17) 0.68744(19) -0.1706(2) 0.0343 Uani
C9OA C 0.23887(19) 0.6999(2) -0.1907(2) 0.0413 Uani
H3OA H 0.2305 0.7135 -0.1978 0.0500 Uiso
O7RB O 0.24908(11) 0.63761(11) -0.32723(11) 0.0240 Uani
O8RB O 0.24763(13) 0.59732(13) -0.33957(14) 0.0407 Uani
C10RB C 0.25673(17) 0.61575(17) -0.32727(17) 0.0287 Uani
C11RB C 0.2783(2) 0.6092(2) -0.3107(2) 0.0450 Uani
C12RB C 0.2895(3) 0.5868(2) -0.3080(3) 0.0737 Uani
H4RB H 0.2854 0.5728 -0.3175 0.0880 Uiso
O9WA O 0.37669(14) 0.44517(11) -0.19640(13) 0.0363 Uani
O10WA O 0.40065(11) 0.43537(10) -0.16283(11) 0.0213 Uani
C13WA C 0.39050(18) 0.45043(16) -0.17809(17) 0.0283 Uani
C14WA C 0.3949(2) 0.47709(17) -0.1726(2) 0.0433 Uani
C15WA C 0.4070(3) 0.4870(2) -0.1525(3) 0.0730 Uani
H5WA H 0.4145 0.4774 -0.1400 0.0870 Uiso
Hf1IB Hf 0.408681(6) 0.362251(6) 0.212352(6) 0.0184 Uani
Hf3IB Hf 0.379548(7) 0.332899(6) 0.161306(6) 0.0231 Uani
S1IB S 0.43464(7) 0.32048(5) 0.08587(5) 0.0495 Uani
O1IB O 0.41453(11) 0.37890(11) 0.12495(11) 0.0220 Uani
O2IB O 0.40661(16) 0.33767(12) 0.12907(14) 0.0413 Uani
O3IB O 0.45756(15) 0.28767(12) 0.04928(14) 0.0387 Uani
O4IB O 0.47568(11) 0.31736(11) 0.02551(10) 0.0223 Uani
O11IB O 0.40159(11) 0.36179(10) 0.17464(11) 0.0207 Uani
O12IB O 0.38352(12) 0.33059(12) 0.20257(12) 0.0277 Uani
O17IB O 0.42671(16) 0.38193(16) 0.24252(14) 0.0490 Uani
O18IB O 0.43515(16) 0.33148(17) 0.2107(2) 0.0660 Uani
O19IB O 0.36148(19) 0.31772(16) 0.12840(14) 0.0560 Uani
O20IB O 0.42688(15) 0.25308(15) 0.0312(2) 0.0580 Uani
C1IB C 0.41676(19) 0.35630(18) 0.11829(17) 0.0307 Uani
C2IB C 0.4318(2) 0.35080(18) 0.09593(19) 0.0387 Uani
C3IB C 0.4456(3) 0.3667(2) 0.0815(2) 0.0603 Uani
H1IB H 0.4465 0.3838 0.0842 0.0720 Uiso
C4IB C 0.4583(3) 0.3540(2) 0.0621(3) 0.0643 Uani
H2IB H 0.4689 0.3619 0.0508 0.0770 Uiso
C5IB C 0.4533(2) 0.32896(18) 0.06170(19) 0.0363 Uani
C6IB C 0.46336(19) 0.30990(17) 0.04370(16) 0.0297 Uani
S5IB S 0.3845(3) 0.3076(3) 0.0582(2) 0.0553 Uani
O23IB O 0.4140(6) 0.2905(9) 0.0136(6) 0.0780 Uani
O24IB O 0.3632(5) 0.3450(6) 0.0946(5) 0.0780 Uani
C16IB C 0.4137(6) 0.2730(8) 0.0317(8) 0.0373 Uani
C17IB C 0.4003(7) 0.2788(8) 0.0560(8) 0.0373 Uani
C18IB C 0.3667(3) 0.3248(6) 0.1063(4) 0.0613 Uani
C19IB C 0.3773(9) 0.3035(10) 0.0907(8) 0.0613 Uani
O25IB O 0.40791(18) 0.30453(16) 0.1644(2) 0.0657 Uani
C20IB C 0.3870(8) 0.2786(10) 0.0964(11) 0.0617 Uani
H6IB H 0.3852 0.2720 0.1124 0.0780 Uiso
C21IB C 0.3981(8) 0.2658(11) 0.0793(11) 0.0617 Uani
H7IB H 0.4040 0.2497 0.0818 0.0780 Uiso
Hf1PA Hf 0.137749(6) 0.287648(6) 0.091319(6) 0.0184 Uani
Hf3PA Hf 0.167101(6) 0.338694(6) 0.120452(7) 0.0231 Uani
S1PA S 0.17952(5) 0.41413(5) 0.06536(7) 0.0495 Uani
O1PA O 0.12110(11) 0.37505(11) 0.08547(11) 0.0220 Uani
O2PA O 0.16233(12) 0.37093(14) 0.09339(16) 0.0413 Uani
O3PA O 0.21233(12) 0.45072(14) 0.04244(15) 0.0387 Uani
O4PA O 0.18264(11) 0.47449(10) 0.02432(11) 0.0223 Uani
O11PA O 0.13821(10) 0.32536(11) 0.09841(11) 0.0207 Uani
O12PA O 0.16941(12) 0.29743(12) 0.11648(12) 0.0277 Uani
O17PA O 0.11807(16) 0.25748(14) 0.07329(16) 0.0490 Uani
O18PA O 0.16852(17) 0.2893(2) 0.06485(16) 0.0660 Uani
O19PA O 0.18228(16) 0.37160(14) 0.13852(19) 0.0560 Uani
O20PA O 0.24692(15) 0.4688(2) 0.07312(15) 0.0580 Uani
C1PA C 0.14370(18) 0.38171(17) 0.08324(19) 0.0307 Uani
C2PA C 0.14920(18) 0.40407(19) 0.0682(2) 0.0387 Uani
C3PA C 0.1333(2) 0.4185(2) 0.0544(3) 0.0603 Uani
H1PA H 0.1162 0.4158 0.0535 0.0720 Uiso
C4PA C 0.1460(2) 0.4379(3) 0.0417(3) 0.0643 Uani
H2PA H 0.1381 0.4492 0.0311 0.0770 Uiso
C5PA C 0.17104(18) 0.43830(19) 0.0467(2) 0.0363 Uani
C6PA C 0.19010(17) 0.45630(16) 0.03664(19) 0.0297 Uani
S5PA S 0.1924(3) 0.4418(2) 0.1155(3) 0.0553 Uani
O23PA O 0.2095(9) 0.4864(6) 0.0860(6) 0.0780 Uani
O24PA O 0.1550(6) 0.4054(5) 0.1368(5) 0.0780 Uani
C16PA C 0.2270(8) 0.4683(8) 0.0863(6) 0.0373 Uani
C17PA C 0.2212(8) 0.4440(8) 0.0997(7) 0.0373 Uani
C18PA C 0.1752(6) 0.3937(4) 0.1333(3) 0.0613 Uani
C19PA C 0.1965(10) 0.4093(8) 0.1227(9) 0.0613 Uani
O25PA O 0.19547(16) 0.3356(2) 0.09209(18) 0.0657 Uani
C20PA C 0.2214(10) 0.4036(11) 0.1130(8) 0.0617 Uani
H6PA H 0.2280 0.3876 0.1148 0.0780 Uiso
C21PA C 0.2342(11) 0.4207(11) 0.1019(8) 0.0617 Uani
H7PA H 0.2503 0.4182 0.0960 0.0780 Uiso
Hf1WA Hf 0.362251(6) 0.408681(6) -0.212352(6) 0.0184 Uani
Hf1XA Hf 0.362251(6) 0.591319(6) 0.212352(6) 0.0184 Uani
Hf1KB Hf 0.408681(6) 0.637749(6) -0.212352(6) 0.0184 Uani
Hf1RB Hf 0.212352(6) 0.591319(6) -0.362251(6) 0.0184 Uani
Hf1SB Hf 0.212352(6) 0.408681(6) 0.362251(6) 0.0184 Uani
Hf2D Hf 0.216029(8) 0.345738(5) 0.345738(5) 0.0147 Uani
Hf2E Hf 0.216029(8) 0.654262(5) -0.345738(5) 0.0147 Uani
Hf2OA Hf 0.154262(5) 0.716029(8) -0.154262(5) 0.0147 Uani
Hf2PA Hf 0.154262(5) 0.283971(8) 0.154262(5) 0.0147 Uani
Hf3OA Hf 0.167101(6) 0.661306(6) -0.120452(7) 0.0231 Uani
Hf3KB Hf 0.379548(7) 0.667101(6) -0.161306(6) 0.0231 Uani
Hf4L Hf 0.395645(5) 0.395645(5) -0.157375(8) 0.0114 Uani
Hf4N Hf 0.395645(5) 0.604355(5) 0.157375(8) 0.0114 Uani
Hf4PA Hf 0.104355(5) 0.342625(8) 0.104355(5) 0.0114 Uani
Hf5WA Hf 0.2500 0.467080(6) -0.032920(6) 0.0204 Uani
Hf5XA Hf 0.2500 0.532920(6) 0.032920(6) 0.0204 Uani
Hf5IB Hf 0.467080(6) 0.2500 0.032920(6) 0.0204 Uani
Hf6L Hf 0.5000 0.295928(11) 0.0000 0.0125 Uani
Hf6OA Hf 0.204072(11) 0.5000 0.0000 0.0125 Uani
O1KB O 0.41453(11) 0.62110(11) -0.12495(11) 0.0220 Uani
O3OA O 0.21233(12) 0.54928(14) -0.04244(15) 0.0387 Uani
O4WA O 0.31736(11) 0.47568(11) -0.02551(10) 0.0223 Uani
O4XA O 0.31736(11) 0.52432(11) 0.02551(10) 0.0223 Uani
O5IB O 0.35932(16) 0.29809(12) 0.17285(14) 0.0447 Uani
O6IB O 0.33966(13) 0.30555(11) 0.20940(12) 0.0303 Uani
O6KB O 0.33966(13) 0.69445(11) -0.20940(12) 0.0303 Uani
O7IB O 0.36239(11) 0.32723(11) 0.24908(11) 0.0240 Uani
O7KB O 0.36239(11) 0.67277(11) -0.24908(11) 0.0240 Uani
O8PA O 0.16043(14) 0.25237(13) 0.09732(13) 0.0407 Uani
O8IB O 0.40268(13) 0.33957(14) 0.24763(13) 0.0407 Uani
O9PA O 0.12331(14) 0.30360(13) 0.05483(11) 0.0363 Uani
O9IB O 0.44517(11) 0.37669(14) 0.19640(13) 0.0363 Uani
O10IB O 0.43537(10) 0.40065(11) 0.16283(11) 0.0213 Uani
O10KB O 0.43537(10) 0.59935(11) -0.16283(11) 0.0213 Uani
O11KB O 0.40159(11) 0.63821(10) -0.17464(11) 0.0207 Uani
O12KB O 0.38352(12) 0.66941(12) -0.20257(12) 0.0277 Uani
O13PA O 0.12734(10) 0.27848(16) 0.12734(10) 0.0230 Uani
O14PA O 0.09875(12) 0.29951(17) 0.09875(12) 0.0260 Uani
O15PA O 0.15257(12) 0.32241(15) 0.15257(12) 0.0250 Uani
O16PA O 0.13196(11) 0.35849(17) 0.13196(11) 0.0267 Uani
O20OA O 0.24692(15) 0.5312(2) -0.07312(15) 0.0580 Uani
O21OA O 0.23029(13) 0.52806(13) 0.0000 0.0143 Uani
O21PA O 0.23029(13) 0.47194(13) 0.0000 0.0143 Uani
O22OA O 0.22468(15) 0.5000 -0.03777(14) 0.0207 Uani
O22PA O 0.22468(15) 0.5000 0.03777(14) 0.0207 Uani
Hf7? Hf 0.5000 0.5000 0.3368(2) 0.0163 Uani
Hf8? Hf 0.5000 0.5000 0.4283(3) 0.0417 Uani
Hf9? Hf 0.4859(3) 0.4564(3) 0.3828(2) 0.0527 Uani
loop_
_atom_site_aniso_label
_atom_site_aniso_U_11
_atom_site_aniso_U_22
_atom_site_aniso_U_33
_atom_site_aniso_U_23
_atom_site_aniso_U_13
_atom_site_aniso_U_12
Hf1 0.02141(18) 0.01327(16) 0.02053(18) -0.00126(11) 0.01000(12) -0.00138(11)
Hf2 0.01469(15) 0.01469(15) 0.0148(2) 0.00153(10) 0.00153(10) -0.00488(15)
Hf3 0.01300(17) 0.0354(2) 0.02091(18) 0.00963(13) -0.00288(12) -0.00554(12)
Hf4 0.01059(14) 0.01059(14) 0.0129(2) 0.00191(10) 0.00191(10) 0.00141(13)
Hf5 0.0166(2) 0.02230(16) 0.02230(16) 0.01147(17) 0.00153(12) 0.00153(12)
Hf6 0.0132(3) 0.0161(3) 0.0081(3) 0.000 0.000 0.000
S1 0.0228(11) 0.084(2) 0.0417(14) 0.0425(15) -0.0029(10) 0.0016(12)
S2 0.0285(18) 0.0542(15) 0.0542(15) 0.0278(18) -0.0199(13) -0.0199(13)
S3 0.0398(12) 0.0348(18) 0.0398(12) -0.0081(12) 0.0270(15) -0.0081(12)
S4 0.066(2) 0.0142(14) 0.048(2) 0.000 0.0330(19) 0.000
O1 0.020(3) 0.027(3) 0.019(3) 0.016(2) -0.007(2) 0.002(2)
O2 0.021(3) 0.066(5) 0.037(4) 0.036(4) -0.002(3) 0.002(3)
O3 0.019(3) 0.058(5) 0.039(4) 0.028(3) -0.002(3) 0.009(3)
O4 0.021(3) 0.031(3) 0.015(3) 0.013(2) -0.006(2) 0.007(2)
O5 0.020(3) 0.068(5) 0.046(4) 0.031(4) -0.007(3) -0.025(3)
O6 0.014(3) 0.048(4) 0.029(3) 0.015(3) -0.001(2) -0.013(3)
O7 0.028(3) 0.026(3) 0.018(3) -0.002(2) 0.012(2) -0.004(2)
O8 0.051(4) 0.034(4) 0.037(4) -0.011(3) 0.033(3) -0.013(3)
O9 0.053(4) 0.014(3) 0.042(4) 0.002(3) 0.025(3) -0.006(3)
O10 0.031(3) 0.008(2) 0.025(3) 0.007(2) 0.010(2) -0.004(2)
O11 0.012(3) 0.027(3) 0.023(3) -0.001(2) 0.006(2) -0.004(2)
O12 0.026(3) 0.030(3) 0.027(3) 0.008(2) -0.001(2) -0.008(2)
O13 0.019(2) 0.019(2) 0.031(4) 0.002(2) 0.002(2) -0.007(3)
O14 0.024(3) 0.024(3) 0.030(5) 0.003(2) 0.003(2) 0.006(3)
O15 0.028(3) 0.028(3) 0.019(4) 0.004(2) 0.004(2) 0.002(3)
O16 0.022(3) 0.022(3) 0.036(5) -0.001(2) -0.001(2) -0.009(3)
O17 0.061(5) 0.059(5) 0.027(4) -0.026(3) 0.007(3) -0.034(4)
O18 0.045(5) 0.036(4) 0.117(9) 0.021(5) 0.038(5) 0.026(4)
O19 0.050(5) 0.088(7) 0.030(4) -0.007(4) -0.015(3) -0.034(5)
O20 0.038(4) 0.030(4) 0.106(8) 0.030(4) 0.006(4) 0.002(3)
O21 0.011(3) 0.019(4) 0.013(3) 0.000 -0.001(3) 0.000
O22 0.022(4) 0.013(4) 0.027(4) 0.000 0.000 0.002(3)
C1 0.030(5) 0.038(5) 0.024(4) 0.016(4) -0.002(3) 0.014(4)
C2 0.030(5) 0.056(6) 0.030(5) 0.032(5) -0.009(4) 0.006(4)
C3 0.029(6) 0.100(11) 0.052(7) 0.042(7) -0.009(5) -0.011(6)
C4 0.023(5) 0.100(11) 0.070(9) 0.060(8) -0.009(5) -0.011(6)
C5 0.027(5) 0.050(6) 0.032(5) 0.024(4) -0.012(4) 0.011(4)
C6 0.027(5) 0.043(5) 0.019(4) 0.010(4) -0.005(3) 0.004(4)
C7 0.022(4) 0.049(6) 0.033(5) 0.003(4) -0.006(4) -0.010(4)
C8 0.018(4) 0.048(6) 0.037(5) 0.009(4) -0.002(4) -0.014(4)
C9 0.028(5) 0.057(7) 0.039(6) 0.022(5) -0.011(4) -0.004(5)
C10 0.027(4) 0.032(5) 0.027(4) -0.005(4) 0.015(4) -0.004(3)
C11 0.048(6) 0.044(6) 0.043(6) -0.005(5) 0.038(5) -0.002(5)
C12 0.074(10) 0.040(7) 0.107(12) -0.003(7) 0.061(9) -0.018(6)
C13 0.036(5) 0.020(4) 0.029(5) -0.004(3) 0.010(4) -0.001(3)
C14 0.066(7) 0.012(4) 0.052(6) 0.000(4) 0.038(6) 0.001(4)
C15 0.117(11) 0.017(5) 0.085(9) -0.007(5) 0.063(8) 0.004(6)
S5 0.069(8) 0.057(7) 0.040(6) -0.004(5) -0.025(6) 0.018(6)
O23 0.16(3) 0.042(13) 0.032(12) -0.013(10) -0.049(15) 0.060(17)
O24 0.16(3) 0.042(13) 0.032(12) -0.013(10) -0.049(15) 0.060(17)
C16 0.038(15) 0.019(12) 0.055(19) 0.007(12) 0.000(13) 0.013(11)
C17 0.038(15) 0.019(12) 0.055(19) 0.007(12) 0.000(13) 0.013(11)
C18 0.11(3) 0.05(2) 0.024(15) -0.014(14) -0.037(18) 0.03(2)
C19 0.11(3) 0.05(2) 0.024(15) -0.014(14) -0.037(18) 0.03(2)
O25 0.039(5) 0.065(6) 0.093(7) 0.036(5) 0.024(5) 0.029(4)
C20 0.06(2) 0.035(18) 0.09(3) 0.035(18) 0.03(2) 0.010(16)
C21 0.06(2) 0.035(18) 0.09(3) 0.035(18) 0.03(2) 0.010(16)
O5PA 0.02 0.046 0.068 0.031 -0.025 -0.007
O6PA 0.014 0.029 0.048 0.015 -0.013 -0.001
C7PA 0.022 0.033 0.049 0.003 -0.01 -0.006
C8PA 0.018 0.037 0.048 0.009 -0.014 -0.002
C9PA 0.028 0.039 0.057 0.022 -0.004 -0.011
O7SB 0.018 0.026 0.028 -0.004 0.012 -0.002
O8SB 0.037 0.034 0.051 -0.013 0.033 -0.011
C10SB 0.027 0.032 0.027 -0.004 0.015 -0.005
C11SB 0.043 0.044 0.048 -0.002 0.038 -0.005
C12SB 0.107 0.04 0.074 -0.018 0.061 -0.003
O9XA 0.053 0.014 0.042 -0.002 0.025 0.006
O10XA 0.031 0.008 0.025 -0.007 0.01 0.004
C13XA 0.036 0.02 0.029 0.004 0.01 0.001
C14XA 0.066 0.012 0.052 0 0.038 -0.001
C15XA 0.117 0.017 0.085 0.007 0.063 -0.004
Hf1C 0.02141 0.01327 0.02053 -0.00126 -0.01 0.00138
Hf2C 0.01469 0.01469 0.0148 0.00153 -0.00153 0.00488
Hf3C 0.013 0.0354 0.02091 0.00963 0.00288 0.00554
Hf4C 0.01059 0.01059 0.0129 0.00191 -0.00191 -0.00141
Hf5C 0.0166 0.0223 0.0223 0.01147 -0.00153 -0.00153
S1C 0.0228 0.084 0.0417 0.0425 0.0029 -0.0016
S2C 0.0285 0.0542 0.0542 0.0278 0.0199 0.0199
S3C 0.0398 0.0348 0.0398 -0.0081 -0.027 0.0081
S4C 0.066 0.0142 0.048 0 -0.033 0
O1C 0.02 0.027 0.019 0.016 0.007 -0.002
O2C 0.021 0.066 0.037 0.036 0.002 -0.002
O3C 0.019 0.058 0.039 0.028 0.002 -0.009
O4C 0.021 0.031 0.015 0.013 0.006 -0.007
O5C 0.02 0.068 0.046 0.031 0.007 0.025
O6C 0.014 0.048 0.029 0.015 0.001 0.013
O7C 0.028 0.026 0.018 -0.002 -0.012 0.004
O8C 0.051 0.034 0.037 -0.011 -0.033 0.013
O9C 0.053 0.014 0.042 0.002 -0.025 0.006
O10C 0.031 0.008 0.025 0.007 -0.01 0.004
O11C 0.012 0.027 0.023 -0.001 -0.006 0.004
O12C 0.026 0.03 0.027 0.008 0.001 0.008
O13C 0.019 0.019 0.031 0.002 -0.002 0.007
O14C 0.024 0.024 0.03 0.003 -0.003 -0.006
O15C 0.028 0.028 0.019 0.004 -0.004 -0.002
O16C 0.022 0.022 0.036 -0.001 0.001 0.009
O17C 0.061 0.059 0.027 -0.026 -0.007 0.034
O18C 0.045 0.036 0.117 0.021 -0.038 -0.026
O19C 0.05 0.088 0.03 -0.007 0.015 0.034
O20C 0.038 0.03 0.106 0.03 -0.006 -0.002
O21C 0.011 0.019 0.013 0 0.001 0
O22C 0.022 0.013 0.027 0 0 -0.002
C1C 0.03 0.038 0.024 0.016 0.002 -0.014
C2C 0.03 0.056 0.03 0.032 0.009 -0.006
C3C 0.029 0.1 0.052 0.042 0.009 0.011
C4C 0.023 0.1 0.07 0.06 0.009 0.011
C5C 0.027 0.05 0.032 0.024 0.012 -0.011
C6C 0.027 0.043 0.019 0.01 0.005 -0.004
C7C 0.022 0.049 0.033 0.003 0.006 0.01
C8C 0.018 0.048 0.037 0.009 0.002 0.014
C9C 0.028 0.057 0.039 0.022 0.011 0.004
C10C 0.027 0.032 0.027 -0.005 -0.015 0.004
C11C 0.048 0.044 0.043 -0.005 -0.038 0.002
C12C 0.074 0.04 0.107 -0.003 -0.061 0.018
C13C 0.036 0.02 0.029 -0.004 -0.01 0.001
C14C 0.066 0.012 0.052 0 -0.038 -0.001
C15C 0.117 0.017 0.085 -0.007 -0.063 -0.004
S5C 0.069 0.057 0.04 -0.004 0.025 -0.018
O23C 0.16 0.042 0.032 -0.013 0.049 -0.06
O24C 0.16 0.042 0.032 -0.013 0.049 -0.06
C16C 0.038 0.019 0.055 0.007 0 -0.013
C17C 0.038 0.019 0.055 0.007 0 -0.013
C18C 0.11 0.05 0.024 -0.014 0.037 -0.03
C19C 0.11 0.05 0.024 -0.014 0.037 -0.03
O25C 0.039 0.065 0.093 0.036 -0.024 -0.029
C20C 0.06 0.035 0.09 0.035 -0.03 -0.01
C21C 0.06 0.035 0.09 0.035 -0.03 -0.01
O5OA 0.02 0.046 0.068 0.031 0.025 0.007
O6OA 0.014 0.029 0.048 0.015 0.013 0.001
C7OA 0.022 0.033 0.049 0.003 0.01 0.006
C8OA 0.018 0.037 0.048 0.009 0.014 0.002
C9OA 0.028 0.039 0.057 0.022 0.004 0.011
O7RB 0.018 0.026 0.028 -0.004 -0.012 0.002
O8RB 0.037 0.034 0.051 -0.013 -0.033 0.011
C10RB 0.027 0.032 0.027 -0.004 -0.015 0.005
C11RB 0.043 0.044 0.048 -0.002 -0.038 0.005
C12RB 0.107 0.04 0.074 -0.018 -0.061 0.003
O9WA 0.053 0.014 0.042 -0.002 -0.025 -0.006
O10WA 0.031 0.008 0.025 -0.007 -0.01 -0.004
C13WA 0.036 0.02 0.029 0.004 -0.01 -0.001
C14WA 0.066 0.012 0.052 0 -0.038 0.001
C15WA 0.117 0.017 0.085 0.007 -0.063 0.004
Hf1IB 0.01327 0.02141 0.02053 0.01 -0.00126 -0.00138
Hf3IB 0.0354 0.013 0.02091 -0.00288 0.00963 -0.00554
S1IB 0.084 0.0228 0.0417 -0.0029 0.0425 0.0016
O1IB 0.027 0.02 0.019 -0.007 0.016 0.002
O2IB 0.066 0.021 0.037 -0.002 0.036 0.002
O3IB 0.058 0.019 0.039 -0.002 0.028 0.009
O4IB 0.031 0.021 0.015 -0.006 0.013 0.007
O11IB 0.027 0.012 0.023 0.006 -0.001 -0.004
O12IB 0.03 0.026 0.027 -0.001 0.008 -0.008
O17IB 0.059 0.061 0.027 0.007 -0.026 -0.034
O18IB 0.036 0.045 0.117 0.038 0.021 0.026
O19IB 0.088 0.05 0.03 -0.015 -0.007 -0.034
O20IB 0.03 0.038 0.106 0.006 0.03 0.002
C1IB 0.038 0.03 0.024 -0.002 0.016 0.014
C2IB 0.056 0.03 0.03 -0.009 0.032 0.006
C3IB 0.1 0.029 0.052 -0.009 0.042 -0.011
C4IB 0.1 0.023 0.07 -0.009 0.06 -0.011
C5IB 0.05 0.027 0.032 -0.012 0.024 0.011
C6IB 0.043 0.027 0.019 -0.005 0.01 0.004
S5IB 0.057 0.069 0.04 -0.025 -0.004 0.018
O23IB 0.042 0.16 0.032 -0.049 -0.013 0.06
O24IB 0.042 0.16 0.032 -0.049 -0.013 0.06
C16IB 0.019 0.038 0.055 0 0.007 0.013
C17IB 0.019 0.038 0.055 0 0.007 0.013
C18IB 0.05 0.11 0.024 -0.037 -0.014 0.03
C19IB 0.05 0.11 0.024 -0.037 -0.014 0.03
O25IB 0.065 0.039 0.093 0.024 0.036 0.029
C20IB 0.035 0.06 0.09 0.03 0.035 0.01
C21IB 0.035 0.06 0.09 0.03 0.035 0.01
Hf1PA 0.02141 0.02053 0.01327 -0.00126 -0.00138 0.01
Hf3PA 0.013 0.02091 0.0354 0.00963 -0.00554 -0.00288
S1PA 0.0228 0.0417 0.084 0.0425 0.0016 -0.0029
O1PA 0.02 0.019 0.027 0.016 0.002 -0.007
O2PA 0.021 0.037 0.066 0.036 0.002 -0.002
O3PA 0.019 0.039 0.058 0.028 0.009 -0.002
O4PA 0.021 0.015 0.031 0.013 0.007 -0.006
O11PA 0.012 0.023 0.027 -0.001 -0.004 0.006
O12PA 0.026 0.027 0.03 0.008 -0.008 -0.001
O17PA 0.061 0.027 0.059 -0.026 -0.034 0.007
O18PA 0.045 0.117 0.036 0.021 0.026 0.038
O19PA 0.05 0.03 0.088 -0.007 -0.034 -0.015
O20PA 0.038 0.106 0.03 0.03 0.002 0.006
C1PA 0.03 0.024 0.038 0.016 0.014 -0.002
C2PA 0.03 0.03 0.056 0.032 0.006 -0.009
C3PA 0.029 0.052 0.1 0.042 -0.011 -0.009
C4PA 0.023 0.07 0.1 0.06 -0.011 -0.009
C5PA 0.027 0.032 0.05 0.024 0.011 -0.012
C6PA 0.027 0.019 0.043 0.01 0.004 -0.005
S5PA 0.069 0.04 0.057 -0.004 0.018 -0.025
O23PA 0.16 0.032 0.042 -0.013 0.06 -0.049
O24PA 0.16 0.032 0.042 -0.013 0.06 -0.049
C16PA 0.038 0.055 0.019 0.007 0.013 0
C17PA 0.038 0.055 0.019 0.007 0.013 0
C18PA 0.11 0.024 0.05 -0.014 0.03 -0.037
C19PA 0.11 0.024 0.05 -0.014 0.03 -0.037
O25PA 0.039 0.093 0.065 0.036 0.029 0.024
C20PA 0.06 0.09 0.035 0.035 0.01 0.03
C21PA 0.06 0.09 0.035 0.035 0.01 0.03
Hf1WA 0.02141 0.01327 0.02053 0.00126 -0.01 -0.00138
Hf1XA 0.02141 0.01327 0.02053 0.00126 0.01 0.00138
Hf1KB 0.01327 0.02141 0.02053 0.01 0.00126 0.00138
Hf1RB 0.02053 0.01327 0.02141 -0.00138 -0.01 0.00126
Hf1SB 0.02053 0.01327 0.02141 -0.00138 0.01 -0.00126
Hf2D 0.0148 0.01469 0.01469 -0.00488 0.00153 0.00153
Hf2E 0.0148 0.01469 0.01469 -0.00488 -0.00153 -0.00153
Hf2OA 0.01469 0.0148 0.01469 0.00153 0.00488 -0.00153
Hf2PA 0.01469 0.0148 0.01469 0.00153 -0.00488 0.00153
Hf3OA 0.013 0.02091 0.0354 0.00963 0.00554 0.00288
Hf3KB 0.0354 0.013 0.02091 -0.00288 -0.00963 0.00554
Hf4L 0.01059 0.01059 0.0129 -0.00191 -0.00191 0.00141
Hf4N 0.01059 0.01059 0.0129 -0.00191 0.00191 -0.00141
Hf4PA 0.01059 0.0129 0.01059 0.00191 0.00141 0.00191
Hf5WA 0.0166 0.0223 0.0223 -0.01147 -0.00153 0.00153
Hf5XA 0.0166 0.0223 0.0223 -0.01147 0.00153 -0.00153
Hf5IB 0.0223 0.0166 0.0223 0.00153 0.01147 0.00153
Hf6L 0.0161 0.0132 0.0081 0 0 0
Hf6OA 0.0132 0.0081 0.0161 0 0 0
O1KB 0.027 0.02 0.019 -0.007 -0.016 -0.002
O3OA 0.019 0.039 0.058 0.028 -0.009 0.002
O4WA 0.021 0.031 0.015 -0.013 0.006 0.007
O4XA 0.021 0.031 0.015 -0.013 -0.006 -0.007
O5IB 0.068 0.02 0.046 -0.007 0.031 -0.025
O6IB 0.048 0.014 0.029 -0.001 0.015 -0.013
O6KB 0.048 0.014 0.029 -0.001 -0.015 0.013
O7IB 0.026 0.028 0.018 0.012 -0.002 -0.004
O7KB 0.026 0.028 0.018 0.012 0.002 0.004
O8PA 0.051 0.037 0.034 -0.011 -0.013 0.033
O8IB 0.034 0.051 0.037 0.033 -0.011 -0.013
O9PA 0.053 0.042 0.014 0.002 -0.006 0.025
O9IB 0.014 0.053 0.042 0.025 0.002 -0.006
O10IB 0.008 0.031 0.025 0.01 0.007 -0.004
O10KB 0.008 0.031 0.025 0.01 -0.007 0.004
O11KB 0.027 0.012 0.023 0.006 0.001 0.004
O12KB 0.03 0.026 0.027 -0.001 -0.008 0.008
O13PA 0.019 0.031 0.019 0.002 -0.007 0.002
O14PA 0.024 0.03 0.024 0.003 0.006 0.003
O15PA 0.028 0.019 0.028 0.004 0.002 0.004
O16PA 0.022 0.036 0.022 -0.001 -0.009 -0.001
O20OA 0.038 0.106 0.03 0.03 -0.002 -0.006
O21OA 0.011 0.013 0.019 0 0 0.001
O21PA 0.011 0.013 0.019 0 0 -0.001
O22OA 0.022 0.027 0.013 0 -0.002 0
O22PA 0.022 0.027 0.013 0 0.002 0
Hf7? 0.020(4) 0.020(4) 0.009(6) 0.000 0.000 0.000
Hf8? 0.060(7) 0.060(7) 0.005(7) 0.000 0.000 0.000
Hf9? 0.081(9) 0.053(7) 0.024(5) 0.014(5) -0.017(5) -0.019(6)
loop_
_geom_bond_atom_site_label_1
_geom_bond_atom_site_label_2
_geom_bond_site_symmetry_1
_geom_bond_site_symmetry_2
Hf1 O8 1_555 1_555
Hf2 O6 1_555 1_555
Hf3 O2 1_555 1_555
Hf4 O1 1_555 1_555
Hf5 O3 1_555 1_555
Hf6 O4 1_555 1_555
S1 C2 1_555 1_555
S2 C8 1_555 1_555
S3 C11 1_555 1_555
S4 C14 1_555 1_555
O1 C1 1_555 1_555
O2 C1 1_555 1_555
O3 C6 1_555 1_555
O4 C6 1_555 1_555
O5 Hf3 1_555 1_555
O6 C7 1_555 1_555
O7 Hf2 1_555 1_555
O8 C10 1_555 1_555
O9 Hf1 1_555 1_555
O10 Hf4 1_555 1_555
O11 Hf1 1_555 1_555
O12 Hf1 1_555 1_555
O13 Hf1 1_555 1_555
O14 Hf1 1_555 1_555
O15 Hf2 1_555 1_555
O16 Hf3 1_555 1_555
O17 Hf1 1_555 1_555
O18 Hf1 1_555 1_555
O19 Hf3 1_555 1_555
O20 Hf5 1_555 1_555
O21 Hf5 1_555 1_555
O22 Hf5 1_555 1_555
C1 C2 1_555 1_555
C2 C3 1_555 1_555
C3 H1 1_555 1_555
C4 C3 1_555 1_555
H2 C4 1_555 1_555
C5 S1 1_555 1_555
C6 C5 1_555 1_555
C7 O5 1_555 1_555
C8 C7 1_555 1_555
C9 C8 1_555 1_555
H3 C9 1_555 1_555
C10 O7 1_555 1_555
C11 C10 1_555 1_555
C12 C11 1_555 1_555
H4 C12 1_555 1_555
C13 O9 1_555 1_555
C14 C13 1_555 1_555
C15 C14 1_555 1_555
H5 C15 1_555 1_555
S5 C17 1_555 1_555
O23 C16 1_555 1_555
O24 C18 1_555 1_555
C16 O20 1_555 1_555
C17 C16 1_555 1_555
C18 O19 1_555 1_555
C19 S5 1_555 1_555
O25 Hf3 1_555 1_555
C20 C19 1_555 1_555
H6 C20 1_555 1_555
C21 C17 1_555 1_555
H7 C21 1_555 1_555
O5PA C7PA 1_555 1_555
O6PA C7PA 1_555 1_555
C7PA C8PA 1_555 1_555
C8PA S2 1_555 1_555
C9PA C9 1_555 1_555
H3PA C9PA 1_555 1_555
O7SB C10SB 1_555 1_555
O8SB C10SB 1_555 1_555
C10SB C11SB 1_555 1_555
C11SB S3 1_555 1_555
C12SB C12 1_555 1_555
H4SB C12SB 1_555 1_555
O9XA C13XA 1_555 1_555
O10XA C13XA 1_555 1_555
C13XA C14XA 1_555 1_555
C14XA S4 1_555 1_555
C15XA C15 1_555 1_555
H5XA C15XA 1_555 1_555
Hf1C O8C 1_555 1_555
Hf2C O6C 1_555 1_555
Hf3C O2C 1_555 1_555
Hf4C O1C 1_555 1_555
Hf5C O3C 1_555 1_555
S1C C2C 1_555 1_555
S2C C8C 1_555 1_555
S3C C11C 1_555 1_555
S4C C14C 1_555 1_555
O1C C1C 1_555 1_555
O2C C1C 1_555 1_555
O3C C6C 1_555 1_555
O4C Hf6 1_555 1_555
O5C Hf3C 1_555 1_555
O6C C7C 1_555 1_555
O7C Hf2C 1_555 1_555
O8C C10C 1_555 1_555
O9C Hf1C 1_555 1_555
O10C Hf4C 1_555 1_555
O11C Hf1C 1_555 1_555
O12C Hf1C 1_555 1_555
O13C Hf1C 1_555 1_555
O14C Hf1C 1_555 1_555
O15C Hf2C 1_555 1_555
O16C Hf3C 1_555 1_555
O17C Hf1C 1_555 1_555
O18C Hf1C 1_555 1_555
O19C Hf3C 1_555 1_555
O20C Hf5C 1_555 1_555
O21C Hf6 1_555 1_555
O22C Hf6 1_555 1_555
C1C C2C 1_555 1_555
C2C C3C 1_555 1_555
C3C H1C 1_555 1_555
C4C C3C 1_555 1_555
H2C C4C 1_555 1_555
C5C S1C 1_555 1_555
C6C O4C 1_555 1_555
C7C O5C 1_555 1_555
C8C C7C 1_555 1_555
C9C C8C 1_555 1_555
H3C C9C 1_555 1_555
C10C O7C 1_555 1_555
C11C C10C 1_555 1_555
C12C C11C 1_555 1_555
H4C C12C 1_555 1_555
C13C O9C 1_555 1_555
C14C C13C 1_555 1_555
C15C C14C 1_555 1_555
H5C C15C 1_555 1_555
S5C C17C 1_555 1_555
O23C C16C 1_555 1_555
O24C C18C 1_555 1_555
C16C O20C 1_555 1_555
C17C C16C 1_555 1_555
C18C O19C 1_555 1_555
C19C S5C 1_555 1_555
O25C Hf3C 1_555 1_555
C20C C19C 1_555 1_555
H6C C20C 1_555 1_555
C21C C17C 1_555 1_555
H7C C21C 1_555 1_555
O5OA C7OA 1_555 1_555
O6OA C7OA 1_555 1_555
C7OA C8OA 1_555 1_555
C8OA S2C 1_555 1_555
C9OA C9C 1_555 1_555
H3OA C9OA 1_555 1_555
O7RB C10RB 1_555 1_555
O8RB C10RB 1_555 1_555
C10RB C11RB 1_555 1_555
C11RB S3C 1_555 1_555
C12RB C12C 1_555 1_555
H4RB C12RB 1_555 1_555
O9WA C13WA 1_555 1_555
O10WA C13WA 1_555 1_555
C13WA C14WA 1_555 1_555
C14WA S4C 1_555 1_555
C15WA C15C 1_555 1_555
H5WA C15WA 1_555 1_555
Hf1IB O13 1_555 1_555
Hf3IB O15 1_555 1_555
S1IB C2IB 1_555 1_555
O1IB Hf4 1_555 1_555
O2IB Hf3IB 1_555 1_555
O3IB C6IB 1_555 1_555
O4IB C6IB 1_555 1_555
O11IB Hf4 1_555 1_555
O12IB Hf2 1_555 1_555
O17IB Hf1IB 1_555 1_555
O18IB Hf1IB 1_555 1_555
O19IB Hf3IB 1_555 1_555
O20IB C16IB 1_555 1_555
C1IB O1IB 1_555 1_555
C2IB C1IB 1_555 1_555
C3IB C2IB 1_555 1_555
H1IB C3IB 1_555 1_555
C4IB C3IB 1_555 1_555
H2IB C4IB 1_555 1_555
C5IB S1IB 1_555 1_555
C6IB C5IB 1_555 1_555
S5IB C17IB 1_555 1_555
O23IB C16IB 1_555 1_555
O24IB C18IB 1_555 1_555
C16IB C17IB 1_555 1_555
C17IB C21IB 1_555 1_555
C18IB O19IB 1_555 1_555
C19IB S5IB 1_555 1_555
O25IB Hf3IB 1_555 1_555
C20IB C19IB 1_555 1_555
H6IB C20IB 1_555 1_555
C21IB C20IB 1_555 1_555
H7IB C21IB 1_555 1_555
Hf1PA O11PA 1_555 1_555
Hf3PA O5PA 1_555 1_555
S1PA C2PA 1_555 1_555
O1PA C1PA 1_555 1_555
O2PA Hf3PA 1_555 1_555
O3PA Hf5 1_555 1_555
O4PA C6PA 1_555 1_555
O11PA Hf3PA 1_555 1_555
O12PA Hf1PA 1_555 1_555
O17PA Hf1PA 1_555 1_555
O18PA Hf1PA 1_555 1_555
O19PA Hf3PA 1_555 1_555
O20PA Hf5 1_555 1_555
C1PA O2PA 1_555 1_555
C2PA C1PA 1_555 1_555
C3PA C2PA 1_555 1_555
H1PA C3PA 1_555 1_555
C4PA C3PA 1_555 1_555
H2PA C4PA 1_555 1_555
C5PA S1PA 1_555 1_555
C6PA O3PA 1_555 1_555
S5PA C17PA 1_555 1_555
O23PA C16PA 1_555 1_555
O24PA C18PA 1_555 1_555
C16PA O20PA 1_555 1_555
C17PA C16PA 1_555 1_555
C18PA O19PA 1_555 1_555
C19PA S5PA 1_555 1_555
O25PA Hf3PA 1_555 1_555
C20PA C19PA 1_555 1_555
H6PA C20PA 1_555 1_555
C21PA C17PA 1_555 1_555
H7PA C21PA 1_555 1_555
Hf1WA O9WA 1_555 1_555
Hf1XA O9XA 1_555 1_555
Hf1KB O13C 1_555 1_555
Hf1RB O8RB 1_555 1_555
Hf1SB O8SB 1_555 1_555
Hf2D O7SB 1_555 1_555
Hf2E O7RB 1_555 1_555
Hf2OA O6OA 1_555 1_555
Hf2PA O6PA 1_555 1_555
Hf3OA O5OA 1_555 1_555
Hf3KB O15C 1_555 1_555
Hf4L O10WA 1_555 1_555
Hf4N O10XA 1_555 1_555
Hf4PA O1PA 1_555 1_555
Hf5WA O22 1_555 1_555
Hf5XA O21 1_555 1_555
Hf5IB O3IB 1_555 1_555
Hf6L O4IB 1_555 1_555
Hf6OA O4PA 1_555 1_555
O1KB Hf4C 1_555 1_555
O3OA Hf5C 1_555 1_555
O4WA Hf6 1_555 1_555
O4XA Hf6 1_555 1_555
O5IB Hf3IB 1_555 1_555
O6IB Hf2 1_555 1_555
O6KB Hf2C 1_555 1_555
O7IB Hf2 1_555 1_555
O7KB Hf2C 1_555 1_555
O8PA Hf1PA 1_555 1_555
O8IB Hf1IB 1_555 1_555
O9PA Hf1PA 1_555 1_555
O9IB Hf1IB 1_555 1_555
O10IB Hf4 1_555 1_555
O10KB Hf4C 1_555 1_555
O11KB Hf4C 1_555 1_555
O12KB Hf2C 1_555 1_555
O13PA Hf1PA 1_555 1_555
O14PA Hf1PA 1_555 1_555
O15PA Hf3PA 1_555 1_555
O16PA Hf3PA 1_555 1_555
O20OA Hf5C 1_555 1_555
O21OA Hf5C 1_555 1_555
O21PA Hf5 1_555 1_555
O22OA Hf5C 1_555 1_555
O22PA Hf5 1_555 1_555
Hf2 O12 1_555 1_555
Hf2 O13 1_555 1_555
Hf3 O11 1_555 1_555
Hf3 O12 1_555 1_555
Hf3 O15 1_555 1_555
Hf4 O11 1_555 1_555
Hf4 O14 1_555 1_555
Hf4 O16 1_555 1_555
Hf6 O21 1_555 1_555
Hf6 O22 1_555 1_555
O10 C13 1_555 1_555
O14 Hf1IB 1_555 1_555
O16 Hf3IB 1_555 1_555
C4 C5 1_555 1_555
C18 C19 1_555 1_555
C20 C21 1_555 1_555
C8PA C9PA 1_555 1_555
C11SB C12SB 1_555 1_555
C14XA C15XA 1_555 1_555
Hf2C O12C 1_555 1_555
Hf2C O13C 1_555 1_555
Hf3C O11C 1_555 1_555
Hf3C O12C 1_555 1_555
Hf3C O15C 1_555 1_555
Hf4C O11C 1_555 1_555
Hf4C O14C 1_555 1_555
Hf4C O16C 1_555 1_555
Hf5C O21C 1_555 1_555
Hf5C O22C 1_555 1_555
O10C C13C 1_555 1_555
O14C Hf1KB 1_555 1_555
O16C Hf3KB 1_555 1_555
O21C Hf5WA 1_555 1_555
O22C Hf5XA 1_555 1_555
C4C C5C 1_555 1_555
C5C C6C 1_555 1_555
C18C C19C 1_555 1_555
C20C C21C 1_555 1_555
C8OA C9OA 1_555 1_555
C11RB C12RB 1_555 1_555
C14WA C15WA 1_555 1_555
Hf1IB O11IB 1_555 1_555
Hf1IB O12IB 1_555 1_555
Hf3IB O11IB 1_555 1_555
Hf3IB O12IB 1_555 1_555
O2IB C1IB 1_555 1_555
O20IB Hf5IB 1_555 1_555
C4IB C5IB 1_555 1_555
C18IB C19IB 1_555 1_555
Hf3PA O12PA 1_555 1_555
O11PA Hf4PA 1_555 1_555
O12PA Hf2PA 1_555 1_555
C4PA C5PA 1_555 1_555
C5PA C6PA 1_555 1_555
C18PA C19PA 1_555 1_555
C20PA C21PA 1_555 1_555
Hf1KB O11KB 1_555 1_555
Hf1KB O12KB 1_555 1_555
Hf2PA O13PA 1_555 1_555
Hf2PA O15PA 1_555 1_555
Hf3KB O11KB 1_555 1_555
Hf3KB O12KB 1_555 1_555
Hf4PA O14PA 1_555 1_555
Hf4PA O16PA 1_555 1_555
Hf5WA O21PA 1_555 1_555
Hf5WA O22OA 1_555 1_555
Hf5XA O21OA 1_555 1_555
Hf5XA O22PA 1_555 1_555
Hf6OA O21OA 1_555 1_555
Hf6OA O21PA 1_555 1_555
Hf6OA O22OA 1_555 1_555
Hf6OA O22PA 1_555 1_555

#END
