
#######################################################################
#
#                 Cambridge Crystallographic Data Centre
#                                CCDC 
#
#######################################################################
#
# If this CIF has been generated from an entry in the Cambridge 
# Structural Database, then it will include bibliographic, chemical, 
# crystal, experimental, refinement or atomic coordinate data resulting 
# from the CCDC's data processing and validation procedures.
#
#######################################################################

data_XICYUF
_chemical_name_common            DUT-68(Zr)
_chemical_formula_moiety         '(C84 H36 O86 S14 Zr15)n'
_chemical_name_systematic        
'catena-[decakis(\m~4~-thiophene-2,5-dicarboxylato)-icosakis(\m~3~-oxo)-bis(\m~2~-thiophene-2-carboxylic anhydride)-tetraformato-dodecaoxo-pentadeca-zirconium]'
_symmetry_cell_setting           cubic
_symmetry_space_group_name_H-M   'I m -3 m'
_symmetry_Int_Tables_number      229
_space_group_name_Hall           '-I 4 2 3'
loop_
_symmetry_equiv_pos_site_id
_symmetry_equiv_pos_as_xyz
1 x,y,z
2 -x,-y,z
3 -x,y,-z
4 x,-y,-z
5 z,x,y
6 z,-x,-y
7 -z,-x,y
8 -z,x,-y
9 y,z,x
10 -y,z,-x
11 y,-z,-x
12 -y,-z,x
13 y,x,-z
14 -y,-x,-z
15 y,-x,z
16 -y,x,z
17 x,z,-y
18 -x,z,y
19 -x,-z,-y
20 x,-z,y
21 z,y,-x
22 z,-y,x
23 -z,y,x
24 -z,-y,-x
25 1/2+x,1/2+y,1/2+z
26 1/2-x,1/2-y,1/2+z
27 1/2-x,1/2+y,1/2-z
28 1/2+x,1/2-y,1/2-z
29 1/2+z,1/2+x,1/2+y
30 1/2+z,1/2-x,1/2-y
31 1/2-z,1/2-x,1/2+y
32 1/2-z,1/2+x,1/2-y
33 1/2+y,1/2+z,1/2+x
34 1/2-y,1/2+z,1/2-x
35 1/2+y,1/2-z,1/2-x
36 1/2-y,1/2-z,1/2+x
37 1/2+y,1/2+x,1/2-z
38 1/2-y,1/2-x,1/2-z
39 1/2+y,1/2-x,1/2+z
40 1/2-y,1/2+x,1/2+z
41 1/2+x,1/2+z,1/2-y
42 1/2-x,1/2+z,1/2+y
43 1/2-x,1/2-z,1/2-y
44 1/2+x,1/2-z,1/2+y
45 1/2+z,1/2+y,1/2-x
46 1/2+z,1/2-y,1/2+x
47 1/2-z,1/2+y,1/2+x
48 1/2-z,1/2-y,1/2-x
49 -x,-y,-z
50 x,y,-z
51 x,-y,z
52 -x,y,z
53 -z,-x,-y
54 -z,x,y
55 z,x,-y
56 z,-x,y
57 -y,-z,-x
58 y,-z,x
59 -y,z,x
60 y,z,-x
61 -y,-x,z
62 y,x,z
63 -y,x,-z
64 y,-x,-z
65 -x,-z,y
66 x,-z,-y
67 x,z,y
68 -x,z,-y
69 -z,-y,x
70 -z,y,-x
71 z,-y,-x
72 z,y,x
73 1/2-x,1/2-y,1/2-z
74 1/2+x,1/2+y,1/2-z
75 1/2+x,1/2-y,1/2+z
76 1/2-x,1/2+y,1/2+z
77 1/2-z,1/2-x,1/2-y
78 1/2-z,1/2+x,1/2+y
79 1/2+z,1/2+x,1/2-y
80 1/2+z,1/2-x,1/2+y
81 1/2-y,1/2-z,1/2-x
82 1/2+y,1/2-z,1/2+x
83 1/2-y,1/2+z,1/2+x
84 1/2+y,1/2+z,1/2-x
85 1/2-y,1/2-x,1/2+z
86 1/2+y,1/2+x,1/2+z
87 1/2-y,1/2+x,1/2-z
88 1/2+y,1/2-x,1/2-z
89 1/2-x,1/2-z,1/2+y
90 1/2+x,1/2-z,1/2-y
91 1/2+x,1/2+z,1/2+y
92 1/2-x,1/2+z,1/2-y
93 1/2-z,1/2-y,1/2+x
94 1/2-z,1/2+y,1/2-x
95 1/2+z,1/2-y,1/2-x
96 1/2+z,1/2+y,1/2+x
_cell_length_a                   53.680(6)
_cell_length_b                   53.680(6)
_cell_length_c                   53.680(6)
_cell_angle_alpha                90
_cell_angle_beta                 90
_cell_angle_gamma                90
_cell_volume                     154681
_exptl_crystal_colour            colorless
_exptl_crystal_description       cubic
_cell_formula_units_Z            24
loop_
_atom_site_label
_atom_site_type_symbol
_atom_site_fract_x
_atom_site_fract_y
_atom_site_fract_z
_atom_site_U_iso_or_equiv
_atom_site_thermal_displace_type
Zr1 Zr 0.362169(8) 0.408712(8) 0.212445(8) 0.0143 Uani
Zr2 Zr 0.345677(7) 0.345677(7) 0.216071(11) 0.0109 Uani
Zr3 Zr 0.332791(8) 0.379572(9) 0.161221(9) 0.0186 Uani
Zr4 Zr 0.395667(7) 0.395667(7) 0.157418(10) 0.0078 Uani
Zr5 Zr 0.2500 0.467028(8) 0.032972(8) 0.0201 Uani
Zr6 Zr 0.295955(15) 0.5000 0.0000 0.0095 Uani
S1 S 0.32049(3) 0.43424(4) 0.08554(3) 0.0414 Uani
S2 S 0.2500 0.33723(3) 0.16277(3) 0.0408 Uani
S3 S 0.29068(3) 0.36918(4) 0.29068(3) 0.0298 Uani
S4 S 0.38324(5) 0.5000 0.19185(5) 0.0353 Uani
O1 O 0.37880(7) 0.41471(8) 0.12457(7) 0.0223 Uani
O2 O 0.33768(8) 0.40663(10) 0.12884(9) 0.0363 Uani
O3 O 0.28807(8) 0.45769(10) 0.04951(9) 0.0387 Uani
O4 O 0.31740(7) 0.47566(8) 0.02587(7) 0.0223 Uani
O5 O 0.29785(8) 0.35911(10) 0.17285(10) 0.0397 Uani
O6 O 0.30549(7) 0.33958(9) 0.20939(8) 0.0264 Uani
O7 O 0.32708(7) 0.36260(7) 0.24907(7) 0.0210 Uani
O8 O 0.33925(9) 0.40284(9) 0.24779(9) 0.0367 Uani
O9 O 0.37684(9) 0.44537(7) 0.19641(9) 0.0332 Uani
O10 O 0.40044(7) 0.43558(6) 0.16299(7) 0.0178 Uani
O11 O 0.36168(7) 0.40157(8) 0.17440(7) 0.0217 Uani
O12 O 0.33066(8) 0.38340(8) 0.20276(8) 0.0280 Uani
O13 O 0.37245(7) 0.37245(7) 0.22174(11) 0.0209 Uani
O14 O 0.40127(8) 0.40127(8) 0.20061(11) 0.0246 Uani
O15 O 0.34743(8) 0.34743(8) 0.17724(10) 0.0249 Uani
O16 O 0.36807(7) 0.36807(7) 0.14163(12) 0.0261 Uani
O17 O 0.38158(11) 0.42684(10) 0.24254(9) 0.0443 Uani
O18 O 0.33092(11) 0.43513(10) 0.21002(15) 0.0607 Uani
O19 O 0.25325(10) 0.42666(10) 0.03101(14) 0.0587 Uani
O20 O 0.26961(9) 0.5000 0.02802(9) 0.0143 Uani
O21 O 0.27548(10) 0.46224(10) 0.0000 0.0190 Uani
C1 C 0.35625(11) 0.41657(12) 0.11815(11) 0.0253 Uani
C2 C 0.35056(11) 0.43201(14) 0.09619(12) 0.0330 Uani
C3 C 0.36660(13) 0.44567(19) 0.08208(16) 0.0553 Uani
H1 H 0.3837 0.4466 0.0849 0.0660 Uiso
C4 C 0.35384(13) 0.45843(19) 0.06235(16) 0.0543 Uani
H2 H 0.3617 0.4690 0.0511 0.0650 Uiso
C5 C 0.32930(12) 0.45354(14) 0.06179(12) 0.0327 Uani
C6 C 0.31003(11) 0.46330(12) 0.04429(11) 0.0267 Uani
C7 C 0.29284(10) 0.34391(13) 0.18993(12) 0.0287 Uani
C8 C 0.26946(10) 0.32945(13) 0.18673(12) 0.0307 Uani
C9 C 0.26120(12) 0.30944(14) 0.19987(14) 0.0383 Uani
H3 H 0.2695 0.3027 0.2135 0.0460 Uiso
C10 C 0.32705(11) 0.38468(11) 0.25655(11) 0.0243 Uani
C11 C 0.31055(13) 0.39101(13) 0.27822(13) 0.0333 Uani
C12 C 0.30704(19) 0.41352(16) 0.28857(18) 0.0637 Uani
H4 H 0.3159 0.4276 0.2840 0.0760 Uiso
C13 C 0.39047(11) 0.45064(10) 0.17816(11) 0.0240 Uani
C14 C 0.39471(15) 0.47727(10) 0.17279(14) 0.0377 Uani
C15 C 0.4069(2) 0.48680(13) 0.1528(2) 0.0797 Uani
H5 H 0.4144 0.4771 0.1405 0.0950 Uiso
O22 O 0.30469(11) 0.40829(12) 0.16455(13) 0.0600 Uani
C16 C 0.2897(9) 0.4081(4) 0.1791(11) 0.0930 Uiso
O23 O 0.2850(6) 0.4111(6) 0.1990(7) 0.0790 Uiso
O24 O 0.31772(11) 0.36107(13) 0.12811(10) 0.0507 Uani
S5 S 0.26566(19) 0.3212(3) 0.0988(3) 0.0780 Uani
C17 C 0.2437(9) 0.3642(8) 0.1033(9) 0.0710 Uani
C18 C 0.2827(8) 0.3461(9) 0.1093(8) 0.0690 Uani
C19 C 0.3089(6) 0.3403(7) 0.1221(7) 0.0543 Uani
O25 O 0.3178(4) 0.3178(4) 0.1180(8) 0.0647 Uani
C20 C 0.2662(9) 0.3679(9) 0.1097(8) 0.0710 Uani
C21 C 0.2394(7) 0.3385(7) 0.0948(8) 0.0603 Uani
O5PA O 0.20215(8) 0.32715(10) 0.14089(10) 0.0397 Uani
O6PA O 0.19451(7) 0.29061(8) 0.16042(9) 0.0264 Uani
C7PA C 0.20716(10) 0.31007(12) 0.15609(13) 0.0287 Uani
C8PA C 0.23054(10) 0.31327(12) 0.17055(13) 0.0307 Uani
C9PA C 0.23880(12) 0.30013(14) 0.19056(14) 0.0383 Uani
H3PA H 0.2305 0.2865 0.1973 0.0460 Uiso
O7SB O 0.24907(7) 0.36260(7) 0.32708(7) 0.0210 Uani
O8SB O 0.24779(9) 0.40284(9) 0.33925(9) 0.0367 Uani
C10SB C 0.25655(11) 0.38468(11) 0.32705(11) 0.0243 Uani
C11SB C 0.27822(13) 0.39101(13) 0.31055(13) 0.0333 Uani
C12SB C 0.28857(18) 0.41352(16) 0.30704(19) 0.0637 Uani
H4SB H 0.2840 0.4276 0.3159 0.0760 Uiso
O9XA O 0.37684(9) 0.55463(7) 0.19641(9) 0.0332 Uani
O10XA O 0.40044(7) 0.56442(6) 0.16299(7) 0.0178 Uani
C13XA C 0.39047(11) 0.54936(10) 0.17816(11) 0.0240 Uani
C14XA C 0.39471(15) 0.52273(10) 0.17279(14) 0.0377 Uani
C15XA C 0.4069(2) 0.51320(13) 0.1528(2) 0.0797 Uani
H5XA H 0.4144 0.5229 0.1405 0.0950 Uiso
O24IB O 0.36107(13) 0.31772(11) 0.12811(10) 0.0507 Uani
S5IB S 0.3212(3) 0.26566(19) 0.0988(3) 0.0780 Uani
C17IB C 0.3642(8) 0.2437(9) 0.1033(9) 0.0710 Uani
C18IB C 0.3461(9) 0.2827(8) 0.1093(8) 0.0690 Uani
C19IB C 0.3403(7) 0.3089(6) 0.1221(7) 0.0543 Uani
C20IB C 0.3679(9) 0.2662(9) 0.1097(8) 0.0710 Uani
C21IB C 0.3385(7) 0.2394(7) 0.0948(8) 0.0603 Uani
Zr1C Zr 0.362169(8) 0.591288(8) -0.212445(8) 0.0143 Uani
Zr2C Zr 0.345677(7) 0.654323(7) -0.216071(11) 0.0109 Uani
Zr3C Zr 0.332791(8) 0.620428(9) -0.161221(9) 0.0186 Uani
Zr4C Zr 0.395667(7) 0.604333(7) -0.157418(10) 0.0078 Uani
Zr5C Zr 0.2500 0.532972(8) -0.032972(8) 0.0201 Uani
S1C S 0.32049(3) 0.56576(4) -0.08554(3) 0.0414 Uani
S2C S 0.2500 0.66277(3) -0.16277(3) 0.0408 Uani
S3C S 0.29068(3) 0.63082(4) -0.29068(3) 0.0298 Uani
S4C S 0.38324(5) 0.5000 -0.19185(5) 0.0353 Uani
O1C O 0.37880(7) 0.58529(8) -0.12457(7) 0.0223 Uani
O2C O 0.33768(8) 0.59337(10) -0.12884(9) 0.0363 Uani
O3C O 0.28807(8) 0.54231(10) -0.04951(9) 0.0387 Uani
O4C O 0.31740(7) 0.52434(8) -0.02587(7) 0.0223 Uani
O5C O 0.29785(8) 0.64089(10) -0.17285(10) 0.0397 Uani
O6C O 0.30549(7) 0.66042(9) -0.20939(8) 0.0264 Uani
O7C O 0.32708(7) 0.63740(7) -0.24907(7) 0.0210 Uani
O8C O 0.33925(9) 0.59716(9) -0.24779(9) 0.0367 Uani
O9C O 0.37684(9) 0.55463(7) -0.19641(9) 0.0332 Uani
O10C O 0.40044(7) 0.56442(6) -0.16299(7) 0.0178 Uani
O11C O 0.36168(7) 0.59843(8) -0.17440(7) 0.0217 Uani
O12C O 0.33066(8) 0.61660(8) -0.20276(8) 0.0280 Uani
O13C O 0.37245(7) 0.62755(7) -0.22174(11) 0.0209 Uani
O14C O 0.40127(8) 0.59873(8) -0.20061(11) 0.0246 Uani
O15C O 0.34743(8) 0.65257(8) -0.17724(10) 0.0249 Uani
O16C O 0.36807(7) 0.63193(7) -0.14163(12) 0.0261 Uani
O17C O 0.38158(11) 0.57316(10) -0.24254(9) 0.0443 Uani
O18C O 0.33092(11) 0.56487(10) -0.21002(15) 0.0607 Uani
O19C O 0.25325(10) 0.57334(10) -0.03101(14) 0.0587 Uani
O20C O 0.26961(9) 0.5000 -0.02802(9) 0.0143 Uani
O21C O 0.27548(10) 0.53776(10) 0.0000 0.0190 Uani
C1C C 0.35625(11) 0.58343(12) -0.11815(11) 0.0253 Uani
C2C C 0.35056(11) 0.56799(14) -0.09619(12) 0.0330 Uani
C3C C 0.36660(13) 0.55433(19) -0.08208(16) 0.0553 Uani
H1C H 0.3837 0.5534 -0.0849 0.0660 Uiso
C4C C 0.35384(13) 0.54157(19) -0.06235(16) 0.0543 Uani
H2C H 0.3617 0.5310 -0.0511 0.0650 Uiso
C5C C 0.32930(12) 0.54646(14) -0.06179(12) 0.0327 Uani
C6C C 0.31003(11) 0.53670(12) -0.04429(11) 0.0267 Uani
C7C C 0.29284(10) 0.65609(13) -0.18993(12) 0.0287 Uani
C8C C 0.26946(10) 0.67055(13) -0.18673(12) 0.0307 Uani
C9C C 0.26120(12) 0.69056(14) -0.19987(14) 0.0383 Uani
H3C H 0.2695 0.6973 -0.2135 0.0460 Uiso
C10C C 0.32705(11) 0.61532(11) -0.25655(11) 0.0243 Uani
C11C C 0.31055(13) 0.60899(13) -0.27822(13) 0.0333 Uani
C12C C 0.30704(19) 0.58648(16) -0.28857(18) 0.0637 Uani
H4C H 0.3159 0.5724 -0.2840 0.0760 Uiso
C13C C 0.39047(11) 0.54936(10) -0.17816(11) 0.0240 Uani
C14C C 0.39471(15) 0.52273(10) -0.17279(14) 0.0377 Uani
C15C C 0.4069(2) 0.51320(13) -0.1528(2) 0.0797 Uani
H5C H 0.4144 0.5229 -0.1405 0.0950 Uiso
O22C O 0.30469(11) 0.59171(12) -0.16455(13) 0.0600 Uani
C16C C 0.2897(9) 0.5919(4) -0.1791(11) 0.0930 Uiso
O23C O 0.2850(6) 0.5889(6) -0.1990(7) 0.0790 Uiso
O24C O 0.31772(11) 0.63893(13) -0.12811(10) 0.0507 Uani
S5C S 0.26566(19) 0.6788(3) -0.0988(3) 0.0780 Uani
C17C C 0.2437(9) 0.6358(8) -0.1033(9) 0.0710 Uani
C18C C 0.2827(8) 0.6539(9) -0.1093(8) 0.0690 Uani
C19C C 0.3089(6) 0.6597(7) -0.1221(7) 0.0543 Uani
O25C O 0.3178(4) 0.6822(4) -0.1180(8) 0.0647 Uani
C20C C 0.2662(9) 0.6321(9) -0.1097(8) 0.0710 Uani
C21C C 0.2394(7) 0.6615(7) -0.0948(8) 0.0603 Uani
O5OA O 0.20215(8) 0.67285(10) -0.14089(10) 0.0397 Uani
O6OA O 0.19451(7) 0.70939(8) -0.16042(9) 0.0264 Uani
C7OA C 0.20716(10) 0.68993(12) -0.15609(13) 0.0287 Uani
C8OA C 0.23054(10) 0.68673(12) -0.17055(13) 0.0307 Uani
C9OA C 0.23880(12) 0.69987(14) -0.19056(14) 0.0383 Uani
H3OA H 0.2305 0.7135 -0.1973 0.0460 Uiso
O7RB O 0.24907(7) 0.63740(7) -0.32708(7) 0.0210 Uani
O8RB O 0.24779(9) 0.59716(9) -0.33925(9) 0.0367 Uani
C10RB C 0.25655(11) 0.61532(11) -0.32705(11) 0.0243 Uani
C11RB C 0.27822(13) 0.60899(13) -0.31055(13) 0.0333 Uani
C12RB C 0.28857(18) 0.58648(16) -0.30704(19) 0.0637 Uani
H4RB H 0.2840 0.5724 -0.3159 0.0760 Uiso
O9WA O 0.37684(9) 0.44537(7) -0.19641(9) 0.0332 Uani
O10WA O 0.40044(7) 0.43558(6) -0.16299(7) 0.0178 Uani
C13WA C 0.39047(11) 0.45064(10) -0.17816(11) 0.0240 Uani
C14WA C 0.39471(15) 0.47727(10) -0.17279(14) 0.0377 Uani
C15WA C 0.4069(2) 0.48680(13) -0.1528(2) 0.0797 Uani
H5WA H 0.4144 0.4771 -0.1405 0.0950 Uiso
O24KB O 0.36107(13) 0.68228(11) -0.12811(10) 0.0507 Uani
S5KB S 0.3212(3) 0.73434(19) -0.0988(3) 0.0780 Uani
C17KB C 0.3642(8) 0.7563(9) -0.1033(9) 0.0710 Uani
C18KB C 0.3461(9) 0.7173(8) -0.1093(8) 0.0690 Uani
C19KB C 0.3403(7) 0.6911(6) -0.1221(7) 0.0543 Uani
C20KB C 0.3679(9) 0.7338(9) -0.1097(8) 0.0710 Uani
C21KB C 0.3385(7) 0.7606(7) -0.0948(8) 0.0603 Uani
Zr1IB Zr 0.408712(8) 0.362169(8) 0.212445(8) 0.0143 Uani
Zr3IB Zr 0.379572(9) 0.332791(8) 0.161221(9) 0.0186 Uani
S1IB S 0.43424(4) 0.32049(3) 0.08554(3) 0.0414 Uani
O1IB O 0.41471(8) 0.37880(7) 0.12457(7) 0.0223 Uani
O2IB O 0.40663(10) 0.33768(8) 0.12884(9) 0.0363 Uani
O3IB O 0.45769(10) 0.28807(8) 0.04951(9) 0.0387 Uani
O4IB O 0.47566(8) 0.31740(7) 0.02587(7) 0.0223 Uani
O11IB O 0.40157(8) 0.36168(7) 0.17440(7) 0.0217 Uani
O12IB O 0.38340(8) 0.33066(8) 0.20276(8) 0.0280 Uani
O17IB O 0.42684(10) 0.38158(11) 0.24254(9) 0.0443 Uani
O18IB O 0.43513(10) 0.33092(11) 0.21002(15) 0.0607 Uani
C1IB C 0.41657(12) 0.35625(11) 0.11815(11) 0.0253 Uani
C2IB C 0.43201(14) 0.35056(11) 0.09619(12) 0.0330 Uani
C3IB C 0.44567(19) 0.36660(13) 0.08208(16) 0.0553 Uani
H1IB H 0.4466 0.3837 0.0849 0.0660 Uiso
C4IB C 0.45843(19) 0.35384(13) 0.06235(16) 0.0543 Uani
H2IB H 0.4690 0.3617 0.0511 0.0650 Uiso
C5IB C 0.45354(14) 0.32930(12) 0.06179(12) 0.0327 Uani
C6IB C 0.46330(12) 0.31003(11) 0.04429(11) 0.0267 Uani
O22IB O 0.40829(12) 0.30469(11) 0.16455(13) 0.0600 Uani
C16IB C 0.4081(4) 0.2897(9) 0.1791(11) 0.0930 Uiso
O23IB O 0.4111(6) 0.2850(6) 0.1990(7) 0.0790 Uiso
Zr1PA Zr 0.137831(8) 0.287555(8) 0.091288(8) 0.0143 Uani
Zr3PA Zr 0.167209(8) 0.338779(9) 0.120428(9) 0.0186 Uani
S1PA S 0.17951(3) 0.41446(3) 0.06576(4) 0.0414 Uani
O1PA O 0.12120(7) 0.37543(7) 0.08529(8) 0.0223 Uani
O2PA O 0.16232(8) 0.37116(9) 0.09337(10) 0.0363 Uani
O3PA O 0.21193(8) 0.45049(9) 0.04231(10) 0.0387 Uani
O4PA O 0.18260(7) 0.47413(7) 0.02434(8) 0.0223 Uani
O11PA O 0.13832(7) 0.32560(7) 0.09843(8) 0.0217 Uani
O12PA O 0.16934(8) 0.29724(8) 0.11660(8) 0.0280 Uani
O17PA O 0.11842(11) 0.25746(9) 0.07316(10) 0.0443 Uani
O18PA O 0.16908(11) 0.28998(15) 0.06487(10) 0.0607 Uani
C1PA C 0.14375(11) 0.38185(11) 0.08343(12) 0.0253 Uani
C2PA C 0.14944(11) 0.40381(12) 0.06799(14) 0.0330 Uani
C3PA C 0.13340(13) 0.41792(16) 0.05433(19) 0.0553 Uani
H1PA H 0.1163 0.4151 0.0534 0.0660 Uiso
C4PA C 0.14616(13) 0.43765(16) 0.04157(19) 0.0543 Uani
H2PA H 0.1383 0.4489 0.0310 0.0650 Uiso
C5PA C 0.17070(12) 0.43821(12) 0.04646(14) 0.0327 Uani
C6PA C 0.18997(11) 0.45571(11) 0.03670(12) 0.0267 Uani
O22PA O 0.19531(11) 0.33545(13) 0.09171(12) 0.0600 Uani
C16PA C 0.2103(9) 0.3209(11) 0.0919(4) 0.0930 Uiso
O23PA O 0.2150(6) 0.3010(7) 0.0889(6) 0.0790 Uiso
O19PA O 0.24675(10) 0.46899(14) 0.07334(10) 0.0587 Uani
O19OA O 0.24675(10) 0.53101(14) -0.07334(10) 0.0587 Uani
Zr1WA Zr 0.362169(8) 0.408712(8) -0.212445(8) 0.0143 Uani
Zr1XA Zr 0.362169(8) 0.591288(8) 0.212445(8) 0.0143 Uani
Zr1KB Zr 0.408712(8) 0.637831(8) -0.212445(8) 0.0143 Uani
Zr1RB Zr 0.212445(8) 0.591288(8) -0.362169(8) 0.0143 Uani
Zr1SB Zr 0.212445(8) 0.408712(8) 0.362169(8) 0.0143 Uani
Zr2D Zr 0.216071(11) 0.345677(7) 0.345677(7) 0.0109 Uani
Zr2E Zr 0.216071(11) 0.654323(7) -0.345677(7) 0.0109 Uani
Zr2OA Zr 0.154323(7) 0.716071(11) -0.154323(7) 0.0109 Uani
Zr2PA Zr 0.154323(7) 0.283929(11) 0.154323(7) 0.0109 Uani
Zr3OA Zr 0.167209(8) 0.661221(9) -0.120428(9) 0.0186 Uani
Zr3KB Zr 0.379572(9) 0.667209(8) -0.161221(9) 0.0186 Uani
Zr4L Zr 0.395667(7) 0.395667(7) -0.157418(10) 0.0078 Uani
Zr4N Zr 0.395667(7) 0.604333(7) 0.157418(10) 0.0078 Uani
Zr4PA Zr 0.104333(7) 0.342582(10) 0.104333(7) 0.0078 Uani
Zr5WA Zr 0.2500 0.467028(8) -0.032972(8) 0.0201 Uani
Zr5XA Zr 0.2500 0.532972(8) 0.032972(8) 0.0201 Uani
Zr5IB Zr 0.467028(8) 0.2500 0.032972(8) 0.0201 Uani
Zr6L Zr 0.5000 0.295955(15) 0.0000 0.0095 Uani
Zr6OA Zr 0.204045(15) 0.5000 0.0000 0.0095 Uani
O1KB O 0.41471(8) 0.62120(7) -0.12457(7) 0.0223 Uani
O3OA O 0.21193(8) 0.54951(9) -0.04231(10) 0.0387 Uani
O4WA O 0.31740(7) 0.47566(8) -0.02587(7) 0.0223 Uani
O4XA O 0.31740(7) 0.52434(8) 0.02587(7) 0.0223 Uani
O5IB O 0.35911(10) 0.29785(8) 0.17285(10) 0.0397 Uani
O6IB O 0.33958(9) 0.30549(7) 0.20939(8) 0.0264 Uani
O6KB O 0.33958(9) 0.69451(7) -0.20939(8) 0.0264 Uani
O7IB O 0.36260(7) 0.32708(7) 0.24907(7) 0.0210 Uani
O7KB O 0.36260(7) 0.67292(7) -0.24907(7) 0.0210 Uani
O8PA O 0.16075(9) 0.25221(9) 0.09716(9) 0.0367 Uani
O8IB O 0.40284(9) 0.33925(9) 0.24779(9) 0.0367 Uani
O9PA O 0.12316(9) 0.30359(9) 0.05463(7) 0.0332 Uani
O9IB O 0.44537(7) 0.37684(9) 0.19641(9) 0.0332 Uani
O10IB O 0.43558(6) 0.40044(7) 0.16299(7) 0.0178 Uani
O10KB O 0.43558(6) 0.59956(7) -0.16299(7) 0.0178 Uani
O11KB O 0.40157(8) 0.63832(7) -0.17440(7) 0.0217 Uani
O12KB O 0.38340(8) 0.66934(8) -0.20276(8) 0.0280 Uani
O13PA O 0.12755(7) 0.27826(11) 0.12755(7) 0.0209 Uani
O14PA O 0.09873(8) 0.29939(11) 0.09873(8) 0.0246 Uani
O15PA O 0.15257(8) 0.32276(10) 0.15257(8) 0.0249 Uani
O16PA O 0.13193(7) 0.35837(12) 0.13193(7) 0.0261 Uani
O20OA O 0.23039(9) 0.52802(9) 0.0000 0.0143 Uani
O20PA O 0.23039(9) 0.47198(9) 0.0000 0.0143 Uani
O21OA O 0.22452(10) 0.5000 -0.03776(10) 0.0190 Uani
O21PA O 0.22452(10) 0.5000 0.03776(10) 0.0190 Uani
O24PA O 0.18228(11) 0.37189(10) 0.13893(13) 0.0507 Uani
Zr7? Zr 0.5000 0.5000 0.3368(4) 0.0253 Uani
Zr8? Zr 0.5000 0.5000 0.4286(5) 0.0443 Uani
Zr9? Zr 0.4858(6) 0.4561(5) 0.3823(4) 0.0467 Uani
loop_
_atom_site_aniso_label
_atom_site_aniso_U_11
_atom_site_aniso_U_22
_atom_site_aniso_U_33
_atom_site_aniso_U_23
_atom_site_aniso_U_13
_atom_site_aniso_U_12
Zr1 0.0166(2) 0.0096(2) 0.0167(2) -0.00119(15) 0.00972(16) -0.00150(15)
Zr2 0.01077(19) 0.01077(19) 0.0112(3) 0.00148(14) 0.00148(14) -0.0047(2)
Zr3 0.0092(2) 0.0290(3) 0.0177(2) 0.00904(18) -0.00245(16) -0.00466(17)
Zr4 0.00695(18) 0.00695(18) 0.0094(3) 0.00200(13) 0.00200(13) 0.00128(18)
Zr5 0.0130(3) 0.0237(2) 0.0237(2) 0.0156(3) 0.00218(18) 0.00218(18)
Zr6 0.0094(4) 0.0146(4) 0.0046(3) 0.000 0.000 0.000
S1 0.0181(7) 0.0692(13) 0.0368(9) 0.0377(9) -0.0043(6) 0.0019(7)
S2 0.0225(11) 0.0499(10) 0.0499(10) 0.0264(12) -0.0188(8) -0.0188(8)
S3 0.0320(7) 0.0254(10) 0.0320(7) -0.0059(6) 0.0242(9) -0.0059(6)
S4 0.0559(15) 0.0092(8) 0.0407(12) 0.000 0.0306(11) 0.000
O1 0.0182(19) 0.029(2) 0.0196(19) 0.0124(16) -0.0034(14) 0.0018(15)
O2 0.018(2) 0.058(3) 0.033(2) 0.030(2) -0.0036(17) 0.0001(19)
O3 0.018(2) 0.061(3) 0.037(3) 0.035(2) -0.0023(18) 0.005(2)
O4 0.0176(19) 0.031(2) 0.0183(18) 0.0108(16) -0.0036(14) 0.0032(15)
O5 0.017(2) 0.059(3) 0.043(3) 0.025(2) -0.0111(19) -0.018(2)
O6 0.0121(18) 0.039(2) 0.028(2) 0.0090(18) -0.0040(15) -0.0132(16)
O7 0.0216(19) 0.0223(19) 0.0192(19) 0.0000(15) 0.0092(15) -0.0052(14)
O8 0.045(3) 0.029(2) 0.036(3) -0.0100(19) 0.031(2) -0.014(2)
O9 0.048(3) 0.0127(19) 0.039(3) -0.0021(17) 0.027(2) -0.0013(17)
O10 0.0243(19) 0.0038(15) 0.0254(19) 0.0007(13) 0.0066(15) 0.0004(13)
O11 0.0145(18) 0.033(2) 0.0175(18) -0.0050(16) 0.0060(14) -0.0051(15)
O12 0.033(2) 0.030(2) 0.021(2) 0.0044(17) 0.0001(17) -0.0109(18)
O13 0.0129(15) 0.0129(15) 0.037(3) 0.0051(15) 0.0051(15) -0.0034(19)
O14 0.0239(17) 0.0239(17) 0.026(3) 0.0085(17) 0.0085(17) 0.004(2)
O15 0.0293(19) 0.0293(19) 0.016(3) 0.0031(16) 0.0031(16) 0.000(2)
O16 0.0216(17) 0.0216(17) 0.035(3) 0.0007(16) 0.0007(16) -0.006(2)
O17 0.058(3) 0.047(3) 0.028(2) -0.017(2) 0.009(2) -0.026(3)
O18 0.038(3) 0.033(3) 0.111(6) 0.021(3) 0.041(3) 0.018(2)
O19 0.037(3) 0.022(3) 0.117(6) 0.031(3) 0.007(3) 0.008(2)
O20 0.009(2) 0.025(3) 0.009(2) 0.000 0.0021(17) 0.000
O21 0.016(2) 0.019(3) 0.022(3) 0.000 0.000 0.004(2)
C1 0.021(3) 0.035(3) 0.020(3) 0.014(2) -0.001(2) 0.008(2)
C2 0.022(3) 0.052(4) 0.025(3) 0.022(3) -0.005(2) 0.004(3)
C3 0.021(3) 0.091(7) 0.054(5) 0.050(5) -0.005(3) -0.003(4)
C4 0.023(3) 0.089(7) 0.051(5) 0.051(5) -0.005(3) -0.006(4)
C5 0.023(3) 0.049(4) 0.026(3) 0.023(3) -0.003(2) 0.006(3)
C6 0.020(3) 0.038(3) 0.022(3) 0.014(2) -0.003(2) 0.008(2)
C7 0.009(2) 0.045(4) 0.032(3) 0.006(3) -0.005(2) -0.010(2)
C8 0.012(3) 0.043(4) 0.037(3) 0.014(3) -0.008(2) -0.013(2)
C9 0.021(3) 0.048(4) 0.046(4) 0.024(3) -0.013(3) -0.016(3)
C10 0.023(3) 0.028(3) 0.022(3) -0.003(2) 0.012(2) -0.004(2)
C11 0.033(3) 0.032(3) 0.035(3) -0.003(3) 0.024(3) -0.005(3)
C12 0.080(6) 0.037(4) 0.074(6) -0.018(4) 0.062(6) -0.022(4)
C13 0.032(3) 0.010(2) 0.030(3) 0.001(2) 0.012(2) -0.002(2)
C14 0.058(4) 0.007(3) 0.048(4) -0.003(2) 0.032(3) 0.000(2)
C15 0.139(10) 0.012(4) 0.088(7) -0.003(4) 0.088(7) 0.002(4)
O22 0.033(3) 0.065(4) 0.082(5) 0.037(3) 0.028(3) 0.022(3)
O24 0.044 0.076 0.032 -0.002 -0.012 -0.021
S5 0.038 0.091 0.105 -0.035 -0.01 0.004
C17 0.067 0.056 0.09 0.024 0.009 -0.014
C18 0.05 0.077 0.08 0.009 0.014 -0.023
C19 0.039 0.053 0.071 -0.014 0.016 -0.036
O25 0.047 0.047 0.1 -0.011 -0.011 -0.033
C20 0.071 0.072 0.07 0.018 0.011 -0.018
C21 0.039 0.052 0.09 0.025 0.022 -0.002
O5PA 0.017 0.043 0.059 0.025 -0.018 -0.0111
O6PA 0.0121 0.028 0.039 0.009 -0.0132 -0.004
C7PA 0.009 0.032 0.045 0.006 -0.01 -0.005
C8PA 0.012 0.037 0.043 0.014 -0.013 -0.008
C9PA 0.021 0.046 0.048 0.024 -0.016 -0.013
O7SB 0.0192 0.0223 0.0216 -0.0052 0.0092 0
O8SB 0.036 0.029 0.045 -0.014 0.031 -0.01
C10SB 0.022 0.028 0.023 -0.004 0.012 -0.003
C11SB 0.035 0.032 0.033 -0.005 0.024 -0.003
C12SB 0.074 0.037 0.08 -0.022 0.062 -0.018
O9XA 0.048 0.0127 0.039 0.0021 0.027 0.0013
O10XA 0.0243 0.0038 0.0254 -0.0007 0.0066 -0.0004
C13XA 0.032 0.01 0.03 -0.001 0.012 0.002
C14XA 0.058 0.007 0.048 0.003 0.032 0
C15XA 0.139 0.012 0.088 0.003 0.088 -0.002
O24IB 0.076 0.044 0.032 -0.012 -0.002 -0.021
S5IB 0.091 0.038 0.105 -0.01 -0.035 0.004
C17IB 0.056 0.067 0.09 0.009 0.024 -0.014
C18IB 0.077 0.05 0.08 0.014 0.009 -0.023
C19IB 0.053 0.039 0.071 0.016 -0.014 -0.036
C20IB 0.072 0.071 0.07 0.011 0.018 -0.018
C21IB 0.052 0.039 0.09 0.022 0.025 -0.002
Zr1C 0.0166 0.0096 0.0167 -0.00119 -0.00972 0.0015
Zr2C 0.01077 0.01077 0.0112 0.00148 -0.00148 0.0047
Zr3C 0.0092 0.029 0.0177 0.00904 0.00245 0.00466
Zr4C 0.00695 0.00695 0.0094 0.002 -0.002 -0.00128
Zr5C 0.013 0.0237 0.0237 0.0156 -0.00218 -0.00218
S1C 0.0181 0.0692 0.0368 0.0377 0.0043 -0.0019
S2C 0.0225 0.0499 0.0499 0.0264 0.0188 0.0188
S3C 0.032 0.0254 0.032 -0.0059 -0.0242 0.0059
S4C 0.0559 0.0092 0.0407 0 -0.0306 0
O1C 0.0182 0.029 0.0196 0.0124 0.0034 -0.0018
O2C 0.018 0.058 0.033 0.03 0.0036 -0.0001
O3C 0.018 0.061 0.037 0.035 0.0023 -0.005
O4C 0.0176 0.031 0.0183 0.0108 0.0036 -0.0032
O5C 0.017 0.059 0.043 0.025 0.0111 0.018
O6C 0.0121 0.039 0.028 0.009 0.004 0.0132
O7C 0.0216 0.0223 0.0192 0 -0.0092 0.0052
O8C 0.045 0.029 0.036 -0.01 -0.031 0.014
O9C 0.048 0.0127 0.039 -0.0021 -0.027 0.0013
O10C 0.0243 0.0038 0.0254 0.0007 -0.0066 -0.0004
O11C 0.0145 0.033 0.0175 -0.005 -0.006 0.0051
O12C 0.033 0.03 0.021 0.0044 -0.0001 0.0109
O13C 0.0129 0.0129 0.037 0.0051 -0.0051 0.0034
O14C 0.0239 0.0239 0.026 0.0085 -0.0085 -0.004
O15C 0.0293 0.0293 0.016 0.0031 -0.0031 0
O16C 0.0216 0.0216 0.035 0.0007 -0.0007 0.006
O17C 0.058 0.047 0.028 -0.017 -0.009 0.026
O18C 0.038 0.033 0.111 0.021 -0.041 -0.018
O19C 0.037 0.022 0.117 0.031 -0.007 -0.008
O20C 0.009 0.025 0.009 0 -0.0021 0
O21C 0.016 0.019 0.022 0 0 -0.004
C1C 0.021 0.035 0.02 0.014 0.001 -0.008
C2C 0.022 0.052 0.025 0.022 0.005 -0.004
C3C 0.021 0.091 0.054 0.05 0.005 0.003
C4C 0.023 0.089 0.051 0.051 0.005 0.006
C5C 0.023 0.049 0.026 0.023 0.003 -0.006
C6C 0.02 0.038 0.022 0.014 0.003 -0.008
C7C 0.009 0.045 0.032 0.006 0.005 0.01
C8C 0.012 0.043 0.037 0.014 0.008 0.013
C9C 0.021 0.048 0.046 0.024 0.013 0.016
C10C 0.023 0.028 0.022 -0.003 -0.012 0.004
C11C 0.033 0.032 0.035 -0.003 -0.024 0.005
C12C 0.08 0.037 0.074 -0.018 -0.062 0.022
C13C 0.032 0.01 0.03 0.001 -0.012 0.002
C14C 0.058 0.007 0.048 -0.003 -0.032 0
C15C 0.139 0.012 0.088 -0.003 -0.088 -0.002
O22C 0.033 0.065 0.082 0.037 -0.028 -0.022
O24C 0.044 0.076 0.032 -0.002 0.012 0.021
S5C 0.038 0.091 0.105 -0.035 0.01 -0.004
C17C 0.067 0.056 0.09 0.024 -0.009 0.014
C18C 0.05 0.077 0.08 0.009 -0.014 0.023
C19C 0.039 0.053 0.071 -0.014 -0.016 0.036
O25C 0.047 0.047 0.1 -0.011 0.011 0.033
C20C 0.071 0.072 0.07 0.018 -0.011 0.018
C21C 0.039 0.052 0.09 0.025 -0.022 0.002
O5OA 0.017 0.043 0.059 0.025 0.018 0.0111
O6OA 0.0121 0.028 0.039 0.009 0.0132 0.004
C7OA 0.009 0.032 0.045 0.006 0.01 0.005
C8OA 0.012 0.037 0.043 0.014 0.013 0.008
C9OA 0.021 0.046 0.048 0.024 0.016 0.013
O7RB 0.0192 0.0223 0.0216 -0.0052 -0.0092 0
O8RB 0.036 0.029 0.045 -0.014 -0.031 0.01
C10RB 0.022 0.028 0.023 -0.004 -0.012 0.003
C11RB 0.035 0.032 0.033 -0.005 -0.024 0.003
C12RB 0.074 0.037 0.08 -0.022 -0.062 0.018
O9WA 0.048 0.0127 0.039 0.0021 -0.027 -0.0013
O10WA 0.0243 0.0038 0.0254 -0.0007 -0.0066 0.0004
C13WA 0.032 0.01 0.03 -0.001 -0.012 -0.002
C14WA 0.058 0.007 0.048 0.003 -0.032 0
C15WA 0.139 0.012 0.088 0.003 -0.088 0.002
O24KB 0.076 0.044 0.032 -0.012 0.002 0.021
S5KB 0.091 0.038 0.105 -0.01 0.035 -0.004
C17KB 0.056 0.067 0.09 0.009 -0.024 0.014
C18KB 0.077 0.05 0.08 0.014 -0.009 0.023
C19KB 0.053 0.039 0.071 0.016 0.014 0.036
C20KB 0.072 0.071 0.07 0.011 -0.018 0.018
C21KB 0.052 0.039 0.09 0.022 -0.025 0.002
Zr1IB 0.0096 0.0166 0.0167 0.00972 -0.00119 -0.0015
Zr3IB 0.029 0.0092 0.0177 -0.00245 0.00904 -0.00466
S1IB 0.0692 0.0181 0.0368 -0.0043 0.0377 0.0019
O1IB 0.029 0.0182 0.0196 -0.0034 0.0124 0.0018
O2IB 0.058 0.018 0.033 -0.0036 0.03 0.0001
O3IB 0.061 0.018 0.037 -0.0023 0.035 0.005
O4IB 0.031 0.0176 0.0183 -0.0036 0.0108 0.0032
O11IB 0.033 0.0145 0.0175 0.006 -0.005 -0.0051
O12IB 0.03 0.033 0.021 0.0001 0.0044 -0.0109
O17IB 0.047 0.058 0.028 0.009 -0.017 -0.026
O18IB 0.033 0.038 0.111 0.041 0.021 0.018
C1IB 0.035 0.021 0.02 -0.001 0.014 0.008
C2IB 0.052 0.022 0.025 -0.005 0.022 0.004
C3IB 0.091 0.021 0.054 -0.005 0.05 -0.003
C4IB 0.089 0.023 0.051 -0.005 0.051 -0.006
C5IB 0.049 0.023 0.026 -0.003 0.023 0.006
C6IB 0.038 0.02 0.022 -0.003 0.014 0.008
O22IB 0.065 0.033 0.082 0.028 0.037 0.022
Zr1PA 0.0166 0.0167 0.0096 -0.00119 -0.0015 0.00972
Zr3PA 0.0092 0.0177 0.029 0.00904 -0.00466 -0.00245
S1PA 0.0181 0.0368 0.0692 0.0377 0.0019 -0.0043
O1PA 0.0182 0.0196 0.029 0.0124 0.0018 -0.0034
O2PA 0.018 0.033 0.058 0.03 0.0001 -0.0036
O3PA 0.018 0.037 0.061 0.035 0.005 -0.0023
O4PA 0.0176 0.0183 0.031 0.0108 0.0032 -0.0036
O11PA 0.0145 0.0175 0.033 -0.005 -0.0051 0.006
O12PA 0.033 0.021 0.03 0.0044 -0.0109 0.0001
O17PA 0.058 0.028 0.047 -0.017 -0.026 0.009
O18PA 0.038 0.111 0.033 0.021 0.018 0.041
C1PA 0.021 0.02 0.035 0.014 0.008 -0.001
C2PA 0.022 0.025 0.052 0.022 0.004 -0.005
C3PA 0.021 0.054 0.091 0.05 -0.003 -0.005
C4PA 0.023 0.051 0.089 0.051 -0.006 -0.005
C5PA 0.023 0.026 0.049 0.023 0.006 -0.003
C6PA 0.02 0.022 0.038 0.014 0.008 -0.003
O22PA 0.033 0.082 0.065 0.037 0.022 0.028
O19PA 0.037 0.117 0.022 0.031 0.008 0.007
O19OA 0.037 0.117 0.022 0.031 -0.008 -0.007
Zr1WA 0.0166 0.0096 0.0167 0.00119 -0.00972 -0.0015
Zr1XA 0.0166 0.0096 0.0167 0.00119 0.00972 0.0015
Zr1KB 0.0096 0.0166 0.0167 0.00972 0.00119 0.0015
Zr1RB 0.0167 0.0096 0.0166 -0.0015 -0.00972 0.00119
Zr1SB 0.0167 0.0096 0.0166 -0.0015 0.00972 -0.00119
Zr2D 0.0112 0.01077 0.01077 -0.0047 0.00148 0.00148
Zr2E 0.0112 0.01077 0.01077 -0.0047 -0.00148 -0.00148
Zr2OA 0.01077 0.0112 0.01077 0.00148 0.0047 -0.00148
Zr2PA 0.01077 0.0112 0.01077 0.00148 -0.0047 0.00148
Zr3OA 0.0092 0.0177 0.029 0.00904 0.00466 0.00245
Zr3KB 0.029 0.0092 0.0177 -0.00245 -0.00904 0.00466
Zr4L 0.00695 0.00695 0.0094 -0.002 -0.002 0.00128
Zr4N 0.00695 0.00695 0.0094 -0.002 0.002 -0.00128
Zr4PA 0.00695 0.0094 0.00695 0.002 0.00128 0.002
Zr5WA 0.013 0.0237 0.0237 -0.0156 -0.00218 0.00218
Zr5XA 0.013 0.0237 0.0237 -0.0156 0.00218 -0.00218
Zr5IB 0.0237 0.013 0.0237 0.00218 0.0156 0.00218
Zr6L 0.0146 0.0094 0.0046 0 0 0
Zr6OA 0.0094 0.0046 0.0146 0 0 0
O1KB 0.029 0.0182 0.0196 -0.0034 -0.0124 -0.0018
O3OA 0.018 0.037 0.061 0.035 -0.005 0.0023
O4WA 0.0176 0.031 0.0183 -0.0108 0.0036 0.0032
O4XA 0.0176 0.031 0.0183 -0.0108 -0.0036 -0.0032
O5IB 0.059 0.017 0.043 -0.0111 0.025 -0.018
O6IB 0.039 0.0121 0.028 -0.004 0.009 -0.0132
O6KB 0.039 0.0121 0.028 -0.004 -0.009 0.0132
O7IB 0.0223 0.0216 0.0192 0.0092 0 -0.0052
O7KB 0.0223 0.0216 0.0192 0.0092 0 0.0052
O8PA 0.045 0.036 0.029 -0.01 -0.014 0.031
O8IB 0.029 0.045 0.036 0.031 -0.01 -0.014
O9PA 0.048 0.039 0.0127 -0.0021 -0.0013 0.027
O9IB 0.0127 0.048 0.039 0.027 -0.0021 -0.0013
O10IB 0.0038 0.0243 0.0254 0.0066 0.0007 0.0004
O10KB 0.0038 0.0243 0.0254 0.0066 -0.0007 -0.0004
O11KB 0.033 0.0145 0.0175 0.006 0.005 0.0051
O12KB 0.03 0.033 0.021 0.0001 -0.0044 0.0109
O13PA 0.0129 0.037 0.0129 0.0051 -0.0034 0.0051
O14PA 0.0239 0.026 0.0239 0.0085 0.004 0.0085
O15PA 0.0293 0.016 0.0293 0.0031 0 0.0031
O16PA 0.0216 0.035 0.0216 0.0007 -0.006 0.0007
O20OA 0.009 0.009 0.025 0 0 -0.0021
O20PA 0.009 0.009 0.025 0 0 0.0021
O21OA 0.016 0.022 0.019 0 -0.004 0
O21PA 0.016 0.022 0.019 0 0.004 0
O24PA 0.044 0.032 0.076 -0.002 -0.021 -0.012
Zr7? 0.035(8) 0.035(8) 0.006(9) 0.000 0.000 0.000
Zr8? 0.062(13) 0.062(13) 0.009(11) 0.000 0.000 0.000
Zr9? 0.076(17) 0.051(14) 0.013(9) 0.011(8) -0.018(10) -0.015(12)
loop_
_geom_bond_atom_site_label_1
_geom_bond_atom_site_label_2
_geom_bond_site_symmetry_1
_geom_bond_site_symmetry_2
Zr1 O8 1_555 1_555
Zr2 O6 1_555 1_555
Zr3 O2 1_555 1_555
Zr4 O1 1_555 1_555
Zr5 O3 1_555 1_555
Zr6 O4 1_555 1_555
S1 C2 1_555 1_555
S2 C8 1_555 1_555
S3 C11 1_555 1_555
S4 C14 1_555 1_555
O1 C1 1_555 1_555
O2 C1 1_555 1_555
O3 C6 1_555 1_555
O4 C6 1_555 1_555
O5 Zr3 1_555 1_555
O6 C7 1_555 1_555
O7 Zr2 1_555 1_555
O8 C10 1_555 1_555
O9 Zr1 1_555 1_555
O10 Zr4 1_555 1_555
O11 Zr1 1_555 1_555
O12 Zr1 1_555 1_555
O13 Zr1 1_555 1_555
O14 Zr1 1_555 1_555
O15 Zr2 1_555 1_555
O16 Zr3 1_555 1_555
O17 Zr1 1_555 1_555
O18 Zr1 1_555 1_555
O19 Zr5 1_555 1_555
O20 Zr5 1_555 1_555
O21 Zr5 1_555 1_555
C1 C2 1_555 1_555
C2 C3 1_555 1_555
C3 H1 1_555 1_555
C4 C3 1_555 1_555
H2 C4 1_555 1_555
C5 S1 1_555 1_555
C6 C5 1_555 1_555
C7 O5 1_555 1_555
C8 C7 1_555 1_555
C9 C8 1_555 1_555
H3 C9 1_555 1_555
C10 O7 1_555 1_555
C11 C10 1_555 1_555
C12 C11 1_555 1_555
H4 C12 1_555 1_555
C13 O9 1_555 1_555
C14 C13 1_555 1_555
C15 C14 1_555 1_555
H5 C15 1_555 1_555
O22 Zr3 1_555 1_555
C16 O22 1_555 1_555
O23 C16 1_555 1_555
O24 Zr3 1_555 1_555
S5 C18 1_555 1_555
C17 C20 1_555 1_555
C18 C19 1_555 1_555
C19 O24 1_555 1_555
O25 C19 1_555 1_555
C20 C18 1_555 1_555
C21 S5 1_555 1_555
O5PA C7PA 1_555 1_555
O6PA C7PA 1_555 1_555
C7PA C8PA 1_555 1_555
C8PA S2 1_555 1_555
C9PA C9 1_555 1_555
H3PA C9PA 1_555 1_555
O7SB C10SB 1_555 1_555
O8SB C10SB 1_555 1_555
C10SB C11SB 1_555 1_555
C11SB S3 1_555 1_555
C12SB C12 1_555 1_555
H4SB C12SB 1_555 1_555
O9XA C13XA 1_555 1_555
O10XA C13XA 1_555 1_555
C13XA C14XA 1_555 1_555
C14XA S4 1_555 1_555
C15XA C15 1_555 1_555
H5XA C15XA 1_555 1_555
O24IB C19IB 1_555 1_555
S5IB C18IB 1_555 1_555
C17IB C20IB 1_555 1_555
C18IB C19IB 1_555 1_555
C19IB O25 1_555 1_555
C20IB C18IB 1_555 1_555
C21IB S5IB 1_555 1_555
Zr1C O8C 1_555 1_555
Zr2C O6C 1_555 1_555
Zr3C O2C 1_555 1_555
Zr4C O1C 1_555 1_555
Zr5C O3C 1_555 1_555
S1C C2C 1_555 1_555
S2C C8C 1_555 1_555
S3C C11C 1_555 1_555
S4C C14C 1_555 1_555
O1C C1C 1_555 1_555
O2C C1C 1_555 1_555
O3C C6C 1_555 1_555
O4C Zr6 1_555 1_555
O5C Zr3C 1_555 1_555
O6C C7C 1_555 1_555
O7C Zr2C 1_555 1_555
O8C C10C 1_555 1_555
O9C Zr1C 1_555 1_555
O10C Zr4C 1_555 1_555
O11C Zr1C 1_555 1_555
O12C Zr1C 1_555 1_555
O13C Zr1C 1_555 1_555
O14C Zr1C 1_555 1_555
O15C Zr2C 1_555 1_555
O16C Zr3C 1_555 1_555
O17C Zr1C 1_555 1_555
O18C Zr1C 1_555 1_555
O19C Zr5C 1_555 1_555
O20C Zr6 1_555 1_555
O21C Zr6 1_555 1_555
C1C C2C 1_555 1_555
C2C C3C 1_555 1_555
C3C H1C 1_555 1_555
C4C C3C 1_555 1_555
H2C C4C 1_555 1_555
C5C S1C 1_555 1_555
C6C O4C 1_555 1_555
C7C O5C 1_555 1_555
C8C C7C 1_555 1_555
C9C C8C 1_555 1_555
H3C C9C 1_555 1_555
C10C O7C 1_555 1_555
C11C C10C 1_555 1_555
C12C C11C 1_555 1_555
H4C C12C 1_555 1_555
C13C O9C 1_555 1_555
C14C C13C 1_555 1_555
C15C C14C 1_555 1_555
H5C C15C 1_555 1_555
O22C Zr3C 1_555 1_555
C16C O22C 1_555 1_555
O23C C16C 1_555 1_555
O24C Zr3C 1_555 1_555
S5C C18C 1_555 1_555
C17C C20C 1_555 1_555
C18C C19C 1_555 1_555
C19C O24C 1_555 1_555
O25C C19C 1_555 1_555
C20C C18C 1_555 1_555
C21C S5C 1_555 1_555
O5OA C7OA 1_555 1_555
O6OA C7OA 1_555 1_555
C7OA C8OA 1_555 1_555
C8OA S2C 1_555 1_555
C9OA C9C 1_555 1_555
H3OA C9OA 1_555 1_555
O7RB C10RB 1_555 1_555
O8RB C10RB 1_555 1_555
C10RB C11RB 1_555 1_555
C11RB S3C 1_555 1_555
C12RB C12C 1_555 1_555
H4RB C12RB 1_555 1_555
O9WA C13WA 1_555 1_555
O10WA C13WA 1_555 1_555
C13WA C14WA 1_555 1_555
C14WA S4C 1_555 1_555
C15WA C15C 1_555 1_555
H5WA C15WA 1_555 1_555
O24KB C19KB 1_555 1_555
S5KB C18KB 1_555 1_555
C17KB C20KB 1_555 1_555
C18KB C19KB 1_555 1_555
C19KB O25C 1_555 1_555
C20KB C18KB 1_555 1_555
C21KB S5KB 1_555 1_555
Zr1IB O13 1_555 1_555
Zr3IB O15 1_555 1_555
S1IB C2IB 1_555 1_555
O1IB Zr4 1_555 1_555
O2IB Zr3IB 1_555 1_555
O3IB C6IB 1_555 1_555
O4IB C6IB 1_555 1_555
O11IB Zr4 1_555 1_555
O12IB Zr2 1_555 1_555
O17IB Zr1IB 1_555 1_555
O18IB Zr1IB 1_555 1_555
C1IB O1IB 1_555 1_555
C2IB C1IB 1_555 1_555
C3IB C2IB 1_555 1_555
H1IB C3IB 1_555 1_555
C4IB C3IB 1_555 1_555
H2IB C4IB 1_555 1_555
C5IB S1IB 1_555 1_555
C6IB C5IB 1_555 1_555
O22IB Zr3IB 1_555 1_555
C16IB O22IB 1_555 1_555
O23IB C16IB 1_555 1_555
Zr1PA O11PA 1_555 1_555
Zr3PA O5PA 1_555 1_555
S1PA C2PA 1_555 1_555
O1PA C1PA 1_555 1_555
O2PA Zr3PA 1_555 1_555
O3PA Zr5 1_555 1_555
O4PA C6PA 1_555 1_555
O11PA Zr3PA 1_555 1_555
O12PA Zr1PA 1_555 1_555
O17PA Zr1PA 1_555 1_555
O18PA Zr1PA 1_555 1_555
C1PA O2PA 1_555 1_555
C2PA C1PA 1_555 1_555
C3PA C2PA 1_555 1_555
H1PA C3PA 1_555 1_555
C4PA C3PA 1_555 1_555
H2PA C4PA 1_555 1_555
C5PA S1PA 1_555 1_555
C6PA O3PA 1_555 1_555
O22PA Zr3PA 1_555 1_555
C16PA O22PA 1_555 1_555
O23PA C16PA 1_555 1_555
O19PA Zr5 1_555 1_555
O19OA Zr5C 1_555 1_555
Zr1WA O9WA 1_555 1_555
Zr1XA O9XA 1_555 1_555
Zr1KB O13C 1_555 1_555
Zr1RB O8RB 1_555 1_555
Zr1SB O8SB 1_555 1_555
Zr2D O7SB 1_555 1_555
Zr2E O7RB 1_555 1_555
Zr2OA O6OA 1_555 1_555
Zr2PA O6PA 1_555 1_555
Zr3OA O5OA 1_555 1_555
Zr3KB O15C 1_555 1_555
Zr4L O10WA 1_555 1_555
Zr4N O10XA 1_555 1_555
Zr4PA O1PA 1_555 1_555
Zr5WA O21 1_555 1_555
Zr5XA O20 1_555 1_555
Zr5IB O3IB 1_555 1_555
Zr6L O4IB 1_555 1_555
Zr6OA O4PA 1_555 1_555
O1KB Zr4C 1_555 1_555
O3OA Zr5C 1_555 1_555
O4WA Zr6 1_555 1_555
O4XA Zr6 1_555 1_555
O5IB Zr3IB 1_555 1_555
O6IB Zr2 1_555 1_555
O6KB Zr2C 1_555 1_555
O7IB Zr2 1_555 1_555
O7KB Zr2C 1_555 1_555
O8PA Zr1PA 1_555 1_555
O8IB Zr1IB 1_555 1_555
O9PA Zr1PA 1_555 1_555
O9IB Zr1IB 1_555 1_555
O10IB Zr4 1_555 1_555
O10KB Zr4C 1_555 1_555
O11KB Zr4C 1_555 1_555
O12KB Zr2C 1_555 1_555
O13PA Zr1PA 1_555 1_555
O14PA Zr1PA 1_555 1_555
O15PA Zr3PA 1_555 1_555
O16PA Zr3PA 1_555 1_555
O20OA Zr5C 1_555 1_555
O20PA Zr5 1_555 1_555
O21OA Zr5C 1_555 1_555
O21PA Zr5 1_555 1_555
O24PA Zr3PA 1_555 1_555
Zr2 O12 1_555 1_555
Zr2 O13 1_555 1_555
Zr3 O11 1_555 1_555
Zr3 O12 1_555 1_555
Zr3 O15 1_555 1_555
Zr4 O11 1_555 1_555
Zr4 O14 1_555 1_555
Zr4 O16 1_555 1_555
Zr6 O20 1_555 1_555
Zr6 O21 1_555 1_555
O10 C13 1_555 1_555
O14 Zr1IB 1_555 1_555
O16 Zr3IB 1_555 1_555
C4 C5 1_555 1_555
C17 C21 1_555 1_555
C8PA C9PA 1_555 1_555
C11SB C12SB 1_555 1_555
C14XA C15XA 1_555 1_555
O24IB Zr3IB 1_555 1_555
C17IB C21IB 1_555 1_555
Zr2C O12C 1_555 1_555
Zr2C O13C 1_555 1_555
Zr3C O11C 1_555 1_555
Zr3C O12C 1_555 1_555
Zr3C O15C 1_555 1_555
Zr4C O11C 1_555 1_555
Zr4C O14C 1_555 1_555
Zr4C O16C 1_555 1_555
Zr5C O20C 1_555 1_555
Zr5C O21C 1_555 1_555
O10C C13C 1_555 1_555
O14C Zr1KB 1_555 1_555
O16C Zr3KB 1_555 1_555
O20C Zr5WA 1_555 1_555
O21C Zr5XA 1_555 1_555
C4C C5C 1_555 1_555
C5C C6C 1_555 1_555
C17C C21C 1_555 1_555
C8OA C9OA 1_555 1_555
C11RB C12RB 1_555 1_555
C14WA C15WA 1_555 1_555
O24KB Zr3KB 1_555 1_555
C17KB C21KB 1_555 1_555
Zr1IB O11IB 1_555 1_555
Zr1IB O12IB 1_555 1_555
Zr3IB O11IB 1_555 1_555
Zr3IB O12IB 1_555 1_555
O2IB C1IB 1_555 1_555
C4IB C5IB 1_555 1_555
Zr3PA O12PA 1_555 1_555
O11PA Zr4PA 1_555 1_555
O12PA Zr2PA 1_555 1_555
C4PA C5PA 1_555 1_555
C5PA C6PA 1_555 1_555
Zr1KB O11KB 1_555 1_555
Zr1KB O12KB 1_555 1_555
Zr2PA O13PA 1_555 1_555
Zr2PA O15PA 1_555 1_555
Zr3KB O11KB 1_555 1_555
Zr3KB O12KB 1_555 1_555
Zr4PA O14PA 1_555 1_555
Zr4PA O16PA 1_555 1_555
Zr5WA O20PA 1_555 1_555
Zr5WA O21OA 1_555 1_555
Zr5XA O20OA 1_555 1_555
Zr5XA O21PA 1_555 1_555
Zr6OA O20OA 1_555 1_555
Zr6OA O20PA 1_555 1_555
Zr6OA O21OA 1_555 1_555
Zr6OA O21PA 1_555 1_555

#END
