
#######################################################################
#
#                 Cambridge Crystallographic Data Centre
#                                CCDC 
#
#######################################################################
#
# If this CIF has been generated from an entry in the Cambridge 
# Structural Database, then it will include bibliographic, chemical, 
# crystal, experimental, refinement or atomic coordinate data resulting 
# from the CCDC's data processing and validation procedures.
#
#######################################################################

data_SUXNEF
_chemical_name_common            Banasorb-22
_chemical_formula_moiety         '(C27 H9 F9 O16 Zn4)n,5n(C5 H11 N1 O1)'
_chemical_name_systematic        
'catena-(tris(\m~4~-2-(trifluoromethoxy)terephthalato)-(\m~4~-oxo)-tetra-zinc N,N-diethylformamide solvate)'
_symmetry_cell_setting           cubic
_symmetry_space_group_name_H-M   'F m 3 m'
_symmetry_Int_Tables_number      225
_space_group_name_Hall           '-F 4 2 3'
loop_
_symmetry_equiv_pos_site_id
_symmetry_equiv_pos_as_xyz
1 x,y,z
2 -y,x,z
3 x,-y,-z
4 z,x,y
5 -x,-y,z
6 y,x,-z
7 -x,z,y
8 y,-x,z
9 -x,y,-z
10 -z,-x,y
11 -y,-x,-z
12 x,-z,y
13 z,-x,-y
14 -x,-z,-y
15 -z,x,-y
16 x,z,-y
17 y,z,x
18 z,-y,x
19 -z,y,x
20 z,y,-x
21 y,-z,-x
22 -z,-y,-x
23 -y,z,-x
24 -y,-z,x
25 x,1/2+y,1/2+z
26 -y,1/2+x,1/2+z
27 x,1/2-y,1/2-z
28 z,1/2+x,1/2+y
29 -x,1/2-y,1/2+z
30 y,1/2+x,1/2-z
31 -x,1/2+z,1/2+y
32 y,1/2-x,1/2+z
33 -x,1/2+y,1/2-z
34 -z,1/2-x,1/2+y
35 -y,1/2-x,1/2-z
36 x,1/2-z,1/2+y
37 z,1/2-x,1/2-y
38 -x,1/2-z,1/2-y
39 -z,1/2+x,1/2-y
40 x,1/2+z,1/2-y
41 y,1/2+z,1/2+x
42 z,1/2-y,1/2+x
43 -z,1/2+y,1/2+x
44 z,1/2+y,1/2-x
45 y,1/2-z,1/2-x
46 -z,1/2-y,1/2-x
47 -y,1/2+z,1/2-x
48 -y,1/2-z,1/2+x
49 1/2+x,y,1/2+z
50 1/2-y,x,1/2+z
51 1/2+x,-y,1/2-z
52 1/2+z,x,1/2+y
53 1/2-x,-y,1/2+z
54 1/2+y,x,1/2-z
55 1/2-x,z,1/2+y
56 1/2+y,-x,1/2+z
57 1/2-x,y,1/2-z
58 1/2-z,-x,1/2+y
59 1/2-y,-x,1/2-z
60 1/2+x,-z,1/2+y
61 1/2+z,-x,1/2-y
62 1/2-x,-z,1/2-y
63 1/2-z,x,1/2-y
64 1/2+x,z,1/2-y
65 1/2+y,z,1/2+x
66 1/2+z,-y,1/2+x
67 1/2-z,y,1/2+x
68 1/2+z,y,1/2-x
69 1/2+y,-z,1/2-x
70 1/2-z,-y,1/2-x
71 1/2-y,z,1/2-x
72 1/2-y,-z,1/2+x
73 1/2+x,1/2+y,z
74 1/2-y,1/2+x,z
75 1/2+x,1/2-y,-z
76 1/2+z,1/2+x,y
77 1/2-x,1/2-y,z
78 1/2+y,1/2+x,-z
79 1/2-x,1/2+z,y
80 1/2+y,1/2-x,z
81 1/2-x,1/2+y,-z
82 1/2-z,1/2-x,y
83 1/2-y,1/2-x,-z
84 1/2+x,1/2-z,y
85 1/2+z,1/2-x,-y
86 1/2-x,1/2-z,-y
87 1/2-z,1/2+x,-y
88 1/2+x,1/2+z,-y
89 1/2+y,1/2+z,x
90 1/2+z,1/2-y,x
91 1/2-z,1/2+y,x
92 1/2+z,1/2+y,-x
93 1/2+y,1/2-z,-x
94 1/2-z,1/2-y,-x
95 1/2-y,1/2+z,-x
96 1/2-y,1/2-z,x
97 -x,-y,-z
98 y,-x,-z
99 -x,y,z
100 -z,-x,-y
101 x,y,-z
102 -y,-x,z
103 x,-z,-y
104 -y,x,-z
105 x,-y,z
106 z,x,-y
107 y,x,z
108 -x,z,-y
109 -z,x,y
110 x,z,y
111 z,-x,y
112 -x,-z,y
113 -y,-z,-x
114 -z,y,-x
115 z,-y,-x
116 -z,-y,x
117 -y,z,x
118 z,y,x
119 y,-z,x
120 y,z,-x
121 -x,1/2-y,1/2-z
122 y,1/2-x,1/2-z
123 -x,1/2+y,1/2+z
124 -z,1/2-x,1/2-y
125 x,1/2+y,1/2-z
126 -y,1/2-x,1/2+z
127 x,1/2-z,1/2-y
128 -y,1/2+x,1/2-z
129 x,1/2-y,1/2+z
130 z,1/2+x,1/2-y
131 y,1/2+x,1/2+z
132 -x,1/2+z,1/2-y
133 -z,1/2+x,1/2+y
134 x,1/2+z,1/2+y
135 z,1/2-x,1/2+y
136 -x,1/2-z,1/2+y
137 -y,1/2-z,1/2-x
138 -z,1/2+y,1/2-x
139 z,1/2-y,1/2-x
140 -z,1/2-y,1/2+x
141 -y,1/2+z,1/2+x
142 z,1/2+y,1/2+x
143 y,1/2-z,1/2+x
144 y,1/2+z,1/2-x
145 1/2-x,-y,1/2-z
146 1/2+y,-x,1/2-z
147 1/2-x,y,1/2+z
148 1/2-z,-x,1/2-y
149 1/2+x,y,1/2-z
150 1/2-y,-x,1/2+z
151 1/2+x,-z,1/2-y
152 1/2-y,x,1/2-z
153 1/2+x,-y,1/2+z
154 1/2+z,x,1/2-y
155 1/2+y,x,1/2+z
156 1/2-x,z,1/2-y
157 1/2-z,x,1/2+y
158 1/2+x,z,1/2+y
159 1/2+z,-x,1/2+y
160 1/2-x,-z,1/2+y
161 1/2-y,-z,1/2-x
162 1/2-z,y,1/2-x
163 1/2+z,-y,1/2-x
164 1/2-z,-y,1/2+x
165 1/2-y,z,1/2+x
166 1/2+z,y,1/2+x
167 1/2+y,-z,1/2+x
168 1/2+y,z,1/2-x
169 1/2-x,1/2-y,-z
170 1/2+y,1/2-x,-z
171 1/2-x,1/2+y,z
172 1/2-z,1/2-x,-y
173 1/2+x,1/2+y,-z
174 1/2-y,1/2-x,z
175 1/2+x,1/2-z,-y
176 1/2-y,1/2+x,-z
177 1/2+x,1/2-y,z
178 1/2+z,1/2+x,-y
179 1/2+y,1/2+x,z
180 1/2-x,1/2+z,-y
181 1/2-z,1/2+x,y
182 1/2+x,1/2+z,y
183 1/2+z,1/2-x,y
184 1/2-x,1/2-z,y
185 1/2-y,1/2-z,-x
186 1/2-z,1/2+y,-x
187 1/2+z,1/2-y,-x
188 1/2-z,1/2-y,x
189 1/2-y,1/2+z,x
190 1/2+z,1/2+y,x
191 1/2+y,1/2-z,x
192 1/2+y,1/2+z,-x
_cell_length_a                   25.765(5)
_cell_length_b                   25.765(5)
_cell_length_c                   25.765(5)
_cell_angle_alpha                90
_cell_angle_beta                 90
_cell_angle_gamma                90
_cell_volume                     17103.7
_cell_formula_units_Z            8
loop_
_atom_site_label
_atom_site_type_symbol
_atom_site_fract_x
_atom_site_fract_y
_atom_site_fract_z
Zn1 Zn 0.20656(4) 0.20656(4) 0.20656(4)
O1 O 0.2500 0.2500 0.2500
O2 O 0.2185(3) 0.1342(3) 0.2185(3)
C1 C 0.2500 0.1109(6) 0.2500
C2 C 0.2500 0.05191(9) 0.2500
C3 C 0.2288(3) 0.02909(18) 0.20600(16)
C4 C 0.1975(5) 0.02378(17) 0.2349(3)
C5 C 0.2382(4) 0.05439(3) 0.2621(4)
C6 C 0.2835(4) 0.03103(18) 0.2833(3)
C7 C 0.2772(3) 0.02185(18) 0.2855(2)
O3 O 0.2022(5) 0.0586(3) 0.1712(3)
C8 C 0.2230(10) 0.0451(10) 0.1210(5)
Zn1DB Zn 0.29344(4) 0.20656(4) 0.29344(4)
Zn1G Zn 0.20656(4) -0.20656(4) 0.20656(4)
Zn1FB Zn 0.29344(4) -0.20656(4) 0.29344(4)
Zn1Z Zn 0.20656(4) 0.29344(4) 0.29344(4)
Zn1XB Zn 0.29344(4) 0.29344(4) 0.20656(4)
Zn1E Zn 0.20656(4) 0.20656(4) -0.20656(4)
Zn1DC Zn 0.29344(4) 0.29344(4) -0.20656(4)
Zn1A Zn -0.20656(4) 0.20656(4) 0.20656(4)
Zn1HA Zn -0.20656(4) 0.29344(4) 0.29344(4)
O1G O 0.2500 -0.2500 0.2500
O2DB O 0.2815(3) 0.1342(3) 0.2815(3)
O2Q O 0.2185(3) -0.1342(3) 0.2185(3)
O2QB O 0.2815(3) -0.1342(3) 0.2815(3)
O2C O 0.2185(3) 0.2185(3) 0.1342(3)
O2CC O 0.2815(3) 0.2815(3) 0.1342(3)
O2O O 0.2185(3) 0.2185(3) -0.1342(3)
O2GC O 0.2815(3) 0.2815(3) -0.1342(3)
O2P O 0.1342(3) 0.2185(3) 0.2185(3)
O2RA O 0.1342(3) 0.2815(3) 0.2815(3)
O2A O -0.1342(3) 0.2185(3) 0.2185(3)
O2HA O -0.1342(3) 0.2815(3) 0.2815(3)
O2JB O 0.2815(3) 0.2185(3) 0.3658(3)
O2RB O 0.3658(3) 0.2185(3) 0.2815(3)
O2G O 0.1342(3) -0.2185(3) 0.2185(3)
O2K O 0.2185(3) -0.2185(3) 0.1342(3)
O2FB O 0.3658(3) -0.2185(3) 0.2815(3)
O2IB O 0.2815(3) -0.2185(3) 0.3658(3)
C1Q C 0.2500 -0.1109(6) 0.2500
C1C C 0.2500 0.2500 0.1109(6)
C1O C 0.2500 0.2500 -0.1109(6)
C1P C 0.1109(6) 0.2500 0.2500
C1A C -0.1109(6) 0.2500 0.2500
C2Q C 0.2500 -0.05191(9) 0.2500
C2C C 0.2500 0.2500 0.05191(9)
C2O C 0.2500 0.2500 -0.05191(9)
C2P C 0.05191(9) 0.2500 0.2500
C2A C -0.05191(9) 0.2500 0.2500
C3Q C 0.20600(16) -0.02909(18) 0.2288(3)
C3QB C 0.29400(16) -0.02909(18) 0.2712(3)
C3DB C 0.2712(3) 0.02909(18) 0.29400(16)
C3MD C 0.20600(16) 0.02909(18) 0.2288(3)
C3ZC C 0.2288(3) -0.02909(18) 0.20600(16)
C3NE C 0.2712(3) -0.02909(18) 0.29400(16)
C3EF C 0.29400(16) 0.02909(18) 0.2712(3)
C3C C 0.20600(16) 0.2288(3) 0.02909(18)
C3O C 0.2288(3) 0.20600(16) -0.02909(18)
C3GC C 0.2712(3) 0.29400(16) -0.02909(18)
C3CC C 0.29400(16) 0.2712(3) 0.02909(18)
C3ED C 0.2288(3) 0.20600(16) 0.02909(18)
C3AD C 0.20600(16) 0.2288(3) -0.02909(18)
C3OF C 0.29400(16) 0.2712(3) -0.02909(18)
C3AG C 0.2712(3) 0.29400(16) 0.02909(18)
C3P C 0.02909(18) 0.20600(16) 0.2288(3)
C3A C -0.02909(18) 0.2288(3) 0.20600(16)
C3HA C -0.02909(18) 0.2712(3) 0.29400(16)
C3RA C 0.02909(18) 0.29400(16) 0.2712(3)
C3BD C 0.02909(18) 0.2288(3) 0.20600(16)
C3LD C -0.02909(18) 0.20600(16) 0.2288(3)
C3FE C -0.02909(18) 0.29400(16) 0.2712(3)
C3QD C 0.02909(18) 0.2712(3) 0.29400(16)
C4Q C 0.2349(3) -0.02378(17) 0.1975(5)
C4QB C 0.2651(3) -0.02378(17) 0.3025(5)
C4DB C 0.3025(5) 0.02378(17) 0.2651(3)
C4MD C 0.2349(3) 0.02378(17) 0.1975(5)
C4ZC C 0.1975(5) -0.02378(17) 0.2349(3)
C4NE C 0.3025(5) -0.02378(17) 0.2651(3)
C4EF C 0.2651(3) 0.02378(17) 0.3025(5)
C4C C 0.2349(3) 0.1975(5) 0.02378(17)
C4O C 0.1975(5) 0.2349(3) -0.02378(17)
C4GC C 0.3025(5) 0.2651(3) -0.02378(17)
C4CC C 0.2651(3) 0.3025(5) 0.02378(17)
C4ED C 0.1975(5) 0.2349(3) 0.02378(17)
C4AD C 0.2349(3) 0.1975(5) -0.02378(17)
C4OF C 0.2651(3) 0.3025(5) -0.02378(17)
C4AG C 0.3025(5) 0.2651(3) 0.02378(17)
C4P C 0.02378(17) 0.2349(3) 0.1975(5)
C4A C -0.02378(17) 0.1975(5) 0.2349(3)
C4HA C -0.02378(17) 0.3025(5) 0.2651(3)
C4RA C 0.02378(17) 0.2651(3) 0.3025(5)
C4BD C 0.02378(17) 0.1975(5) 0.2349(3)
C4LD C -0.02378(17) 0.2349(3) 0.1975(5)
C4FE C -0.02378(17) 0.2651(3) 0.3025(5)
C4QD C 0.02378(17) 0.3025(5) 0.2651(3)
C5Q C 0.2621(4) -0.05439(3) 0.2382(4)
C5DB C 0.2618(4) 0.05439(3) 0.2379(4)
C5ZC C 0.2382(4) -0.05439(3) 0.2621(4)
C5C C 0.2621(4) 0.2382(4) 0.05439(3)
C5O C 0.2382(4) 0.2621(4) -0.05439(3)
C5CC C 0.2379(4) 0.2618(4) 0.05439(3)
C5AD C 0.2621(4) 0.2382(4) -0.05439(3)
C5P C 0.05439(3) 0.2621(4) 0.2382(4)
C5A C -0.05439(3) 0.2382(4) 0.2621(4)
C5RA C 0.05439(3) 0.2379(4) 0.2618(4)
C5LD C -0.05439(3) 0.2621(4) 0.2382(4)
C6Q C 0.2833(3) -0.03103(18) 0.2835(4)
C6DB C 0.2165(4) 0.03103(18) 0.2167(3)
C6QB C 0.2167(3) -0.03103(18) 0.2165(4)
C6C C 0.2833(3) 0.2835(4) 0.03103(18)
C6O C 0.2835(4) 0.2833(3) -0.03103(18)
C6CC C 0.2167(3) 0.2165(4) 0.03103(18)
C6GC C 0.2165(4) 0.2167(3) -0.03103(18)
C6P C 0.03103(18) 0.2833(3) 0.2835(4)
C6A C -0.03103(18) 0.2835(4) 0.2833(3)
C6RA C 0.03103(18) 0.2167(3) 0.2165(4)
C6HA C -0.03103(18) 0.2165(4) 0.2167(3)
C7Q C 0.2855(2) -0.02185(18) 0.2772(3)
C7MD C 0.2855(2) 0.02185(18) 0.2772(3)
C7DB C 0.2228(3) 0.02185(18) 0.2145(2)
C7QB C 0.2145(2) -0.02185(18) 0.2228(3)
C7ZC C 0.2772(3) -0.02185(18) 0.2855(2)
C7NE C 0.2228(3) -0.02185(18) 0.2145(2)
C7EF C 0.2145(2) 0.02185(18) 0.2228(3)
C7C C 0.2855(2) 0.2772(3) 0.02185(18)
C7O C 0.2772(3) 0.2855(2) -0.02185(18)
C7ED C 0.2772(3) 0.2855(2) 0.02185(18)
C7CC C 0.2145(2) 0.2228(3) 0.02185(18)
C7GC C 0.2228(3) 0.2145(2) -0.02185(18)
C7AD C 0.2855(2) 0.2772(3) -0.02185(18)
C7OF C 0.2145(2) 0.2228(3) -0.02185(18)
C7AG C 0.2228(3) 0.2145(2) 0.02185(18)
C7P C 0.02185(18) 0.2855(2) 0.2772(3)
C7A C -0.02185(18) 0.2772(3) 0.2855(2)
C7BD C 0.02185(18) 0.2772(3) 0.2855(2)
C7RA C 0.02185(18) 0.2145(2) 0.2228(3)
C7HA C -0.02185(18) 0.2228(3) 0.2145(2)
C7LD C -0.02185(18) 0.2855(2) 0.2772(3)
C7FE C -0.02185(18) 0.2145(2) 0.2228(3)
C7QD C 0.02185(18) 0.2228(3) 0.2145(2)
O3ZC O 0.2022(5) -0.0586(3) 0.1712(3)
O3Q O 0.1712(3) -0.0586(3) 0.2022(5)
O3MD O 0.1712(3) 0.0586(3) 0.2022(5)
O3DB O 0.2978(5) 0.0586(3) 0.3288(3)
O3EF O 0.3288(3) 0.0586(3) 0.2978(5)
O3NE O 0.2978(5) -0.0586(3) 0.3288(3)
O3QB O 0.3288(3) -0.0586(3) 0.2978(5)
O3C O 0.1712(3) 0.2022(5) 0.0586(3)
O3AD O 0.1712(3) 0.2022(5) -0.0586(3)
O3O O 0.2022(5) 0.1712(3) -0.0586(3)
O3ED O 0.2022(5) 0.1712(3) 0.0586(3)
O3CC O 0.3288(3) 0.2978(5) 0.0586(3)
O3AG O 0.2978(5) 0.3288(3) 0.0586(3)
O3OF O 0.3288(3) 0.2978(5) -0.0586(3)
O3GC O 0.2978(5) 0.3288(3) -0.0586(3)
O3P O 0.0586(3) 0.1712(3) 0.2022(5)
O3LD O -0.0586(3) 0.1712(3) 0.2022(5)
O3A O -0.0586(3) 0.2022(5) 0.1712(3)
O3BD O 0.0586(3) 0.2022(5) 0.1712(3)
O3RA O 0.0586(3) 0.3288(3) 0.2978(5)
O3QD O 0.0586(3) 0.2978(5) 0.3288(3)
O3FE O -0.0586(3) 0.3288(3) 0.2978(5)
O3HA O -0.0586(3) 0.2978(5) 0.3288(3)
C8MD C 0.1210(5) 0.0451(10) 0.2230(10)
C8Q C 0.1210(5) -0.0451(10) 0.2230(10)
C8ZC C 0.2230(10) -0.0451(10) 0.1210(5)
C8DB C 0.2770(10) 0.0451(10) 0.3790(5)
C8EF C 0.3790(5) 0.0451(10) 0.2770(10)
C8QB C 0.3790(5) -0.0451(10) 0.2770(10)
C8NE C 0.2770(10) -0.0451(10) 0.3790(5)
C8C C 0.1210(5) 0.2230(10) 0.0451(10)
C8ED C 0.2230(10) 0.1210(5) 0.0451(10)
C8O C 0.2230(10) 0.1210(5) -0.0451(10)
C8AD C 0.1210(5) 0.2230(10) -0.0451(10)
C8CC C 0.3790(5) 0.2770(10) 0.0451(10)
C8AG C 0.2770(10) 0.3790(5) 0.0451(10)
C8GC C 0.2770(10) 0.3790(5) -0.0451(10)
C8OF C 0.3790(5) 0.2770(10) -0.0451(10)
C8P C 0.0451(10) 0.1210(5) 0.2230(10)
C8BD C 0.0451(10) 0.2230(10) 0.1210(5)
C8A C -0.0451(10) 0.2230(10) 0.1210(5)
C8LD C -0.0451(10) 0.1210(5) 0.2230(10)
C8RA C 0.0451(10) 0.3790(5) 0.2770(10)
C8QD C 0.0451(10) 0.2770(10) 0.3790(5)
C8HA C -0.0451(10) 0.2770(10) 0.3790(5)
C8FE C -0.0451(10) 0.3790(5) 0.2770(10)
O4? O 0.2143(8) -0.0462(3) 0.1544(4)
O5? O 0.3100(6) -0.0604(3) 0.3103(5)
O6? O 0.2979(5) 0.0442(3) 0.3286(3)
F1? F 0.2017(10) 0.0695(10) 0.0813(5)
F2? F 0.2732(10) 0.0554(10) 0.1224(5)
F3? F 0.2161(10) -0.0054(10) 0.1158(5)
C9? C 0.1962(12) -0.0104(8) 0.1160(7)
F4? F 0.1727(12) -0.0372(8) 0.0792(7)
F5? F 0.1627(12) 0.0220(8) 0.1375(7)
F6? F 0.2350(12) 0.0162(8) 0.0957(7)
C10? C 0.3653(6) -0.0552(10) 0.3123(11)
F7? F 0.3868(6) -0.0795(10) 0.3468(11)
F8? F 0.3870(6) -0.0711(10) 0.2687(11)
F9? F 0.3722(6) -0.0004(10) 0.3175(11)
C11? C 0.3163(11) 0.0084(8) 0.3666(7)
F10? F 0.3398(11) 0.0351(8) 0.4034(7)
F11? F 0.2776(11) -0.0183(8) 0.3870(7)
F12? F 0.3496(11) -0.0238(8) 0.3500(7)
loop_
_geom_bond_atom_site_label_1
_geom_bond_atom_site_label_2
_geom_bond_site_symmetry_1
_geom_bond_site_symmetry_2
Zn1 O1 1_555 1_555
O1 Zn1DB 1_555 1_555
O2 Zn1 1_555 1_555
C1 O2 1_555 1_555
C2 C1 1_555 1_555
C3 C2 1_555 1_555
C4 C2 1_555 1_555
C5 C1 1_555 1_555
C6 C2 1_555 1_555
C7 C2 1_555 1_555
O3 C3 1_555 1_555
C8 O3 1_555 1_555
Zn1DB O2DB 1_555 1_555
Zn1G O1G 1_555 1_555
Zn1FB O1G 1_555 1_555
Zn1Z O1 1_555 1_555
Zn1XB O1 1_555 1_555
Zn1E O2O 1_555 1_555
Zn1DC O2GC 1_555 1_555
Zn1A O2A 1_555 1_555
Zn1HA O2HA 1_555 1_555
O2DB C1 1_555 1_555
O2Q Zn1G 1_555 1_555
O2QB Zn1FB 1_555 1_555
O2C Zn1 1_555 1_555
O2CC Zn1XB 1_555 1_555
O2O C1O 1_555 1_555
O2GC C1O 1_555 1_555
O2P Zn1 1_555 1_555
O2RA Zn1Z 1_555 1_555
O2A C1A 1_555 1_555
O2HA C1A 1_555 1_555
O2JB Zn1DB 1_555 1_555
O2RB Zn1DB 1_555 1_555
O2G Zn1G 1_555 1_555
O2K Zn1G 1_555 1_555
O2FB Zn1FB 1_555 1_555
O2IB Zn1FB 1_555 1_555
C1Q O2Q 1_555 1_555
C1C O2C 1_555 1_555
C1O C2O 1_555 1_555
C1P O2P 1_555 1_555
C1A C2A 1_555 1_555
C2Q C1Q 1_555 1_555
C2C C1C 1_555 1_555
C2O C3O 1_555 1_555
C2P C1P 1_555 1_555
C2A C3A 1_555 1_555
C3Q C3 1_555 1_555
C3QB C6 1_555 1_555
C3DB C2 1_555 1_555
C3MD C2 1_555 1_555
C3ZC C3 1_555 1_555
C3NE C6 1_555 1_555
C3EF C2 1_555 1_555
C3C C2C 1_555 1_555
C3O C3C 1_555 1_555
C3GC C2O 1_555 1_555
C3CC C2C 1_555 1_555
C3ED C2C 1_555 1_555
C3AD C2O 1_555 1_555
C3OF C2O 1_555 1_555
C3AG C2C 1_555 1_555
C3P C2P 1_555 1_555
C3A C3P 1_555 1_555
C3HA C2A 1_555 1_555
C3RA C2P 1_555 1_555
C3BD C2P 1_555 1_555
C3LD C2A 1_555 1_555
C3FE C2A 1_555 1_555
C3QD C2P 1_555 1_555
C4Q C3 1_555 1_555
C4QB C6 1_555 1_555
C4DB C2 1_555 1_555
C4MD C2 1_555 1_555
C4ZC C3 1_555 1_555
C4NE C6 1_555 1_555
C4EF C2 1_555 1_555
C4C C2C 1_555 1_555
C4O C2O 1_555 1_555
C4GC C2O 1_555 1_555
C4CC C2C 1_555 1_555
C4ED C2C 1_555 1_555
C4AD C2O 1_555 1_555
C4OF C2O 1_555 1_555
C4AG C2C 1_555 1_555
C4P C2P 1_555 1_555
C4A C2A 1_555 1_555
C4HA C2A 1_555 1_555
C4RA C2P 1_555 1_555
C4BD C2P 1_555 1_555
C4LD C2A 1_555 1_555
C4FE C2A 1_555 1_555
C4QD C2P 1_555 1_555
C5Q C1Q 1_555 1_555
C5DB C1 1_555 1_555
C5ZC C1Q 1_555 1_555
C5C C1C 1_555 1_555
C5O C1O 1_555 1_555
C5CC C1C 1_555 1_555
C5AD C1O 1_555 1_555
C5P C1P 1_555 1_555
C5A C1A 1_555 1_555
C5RA C1P 1_555 1_555
C5LD C1A 1_555 1_555
C6Q C6 1_555 1_555
C6DB C2 1_555 1_555
C6QB C3 1_555 1_555
C6C C2C 1_555 1_555
C6O C2O 1_555 1_555
C6CC C2C 1_555 1_555
C6GC C2O 1_555 1_555
C6P C2P 1_555 1_555
C6A C2A 1_555 1_555
C6RA C2P 1_555 1_555
C6HA C2A 1_555 1_555
C7Q C6 1_555 1_555
C7MD C2 1_555 1_555
C7DB C2 1_555 1_555
C7QB C3 1_555 1_555
C7ZC C6 1_555 1_555
C7NE C3 1_555 1_555
C7EF C2 1_555 1_555
C7C C2C 1_555 1_555
C7O C2O 1_555 1_555
C7ED C2C 1_555 1_555
C7CC C2C 1_555 1_555
C7GC C2O 1_555 1_555
C7AD C2O 1_555 1_555
C7OF C2O 1_555 1_555
C7AG C2C 1_555 1_555
C7P C2P 1_555 1_555
C7A C2A 1_555 1_555
C7BD C2P 1_555 1_555
C7RA C2P 1_555 1_555
C7HA C2A 1_555 1_555
C7LD C2A 1_555 1_555
C7FE C2A 1_555 1_555
C7QD C2P 1_555 1_555
O3ZC C3Q 1_555 1_555
O3Q C3Q 1_555 1_555
O3MD C3 1_555 1_555
O3DB C6 1_555 1_555
O3EF C6 1_555 1_555
O3NE C3QB 1_555 1_555
O3QB C3QB 1_555 1_555
O3C C3C 1_555 1_555
O3AD C3O 1_555 1_555
O3O C3O 1_555 1_555
O3ED C3C 1_555 1_555
O3CC C3CC 1_555 1_555
O3AG C3CC 1_555 1_555
O3OF C3GC 1_555 1_555
O3GC C3GC 1_555 1_555
O3P C3P 1_555 1_555
O3LD C3A 1_555 1_555
O3A C3A 1_555 1_555
O3BD C3P 1_555 1_555
O3RA C3RA 1_555 1_555
O3QD C3RA 1_555 1_555
O3FE C3HA 1_555 1_555
O3HA C3HA 1_555 1_555
C8MD O3MD 1_555 1_555
C8Q O3Q 1_555 1_555
C8ZC O3ZC 1_555 1_555
C8DB O3DB 1_555 1_555
C8EF O3EF 1_555 1_555
C8QB O3QB 1_555 1_555
C8NE O3NE 1_555 1_555
C8C O3C 1_555 1_555
C8ED O3ED 1_555 1_555
C8O O3O 1_555 1_555
C8AD O3AD 1_555 1_555
C8CC O3CC 1_555 1_555
C8AG O3AG 1_555 1_555
C8GC O3GC 1_555 1_555
C8OF O3OF 1_555 1_555
C8P O3P 1_555 1_555
C8BD O3BD 1_555 1_555
C8A O3A 1_555 1_555
C8LD O3LD 1_555 1_555
C8RA O3RA 1_555 1_555
C8QD O3QD 1_555 1_555
C8HA O3HA 1_555 1_555
C8FE O3FE 1_555 1_555
C2 C5 1_555 1_555
C2 C5DB 1_555 1_555
C3 C4 1_555 1_555
C3 C5 1_555 1_555
C3 C3MD 1_555 1_555
C3 C4MD 1_555 1_555
C3 C5DB 1_555 1_555
C3 C6DB 1_555 1_555
C3 C7DB 1_555 1_555
C3 C7EF 1_555 1_555
C4 C5 1_555 1_555
C4 C3Q 1_555 1_555
C4 C3MD 1_555 1_555
C4 C3ZC 1_555 1_555
C4 C4MD 1_555 1_555
C4 C4ZC 1_555 1_555
C4 C6DB 1_555 1_555
C4 C6QB 1_555 1_555
C4 C7DB 1_555 1_555
C4 C7QB 1_555 1_555
C4 C7NE 1_555 1_555
C4 C7EF 1_555 1_555
C4 O3MD 1_555 1_555
C5 C6 1_555 1_555
C5 C7 1_555 1_555
C5 C3DB 1_555 1_555
C5 C3MD 1_555 1_555
C5 C3EF 1_555 1_555
C5 C4EF 1_555 1_555
C5 C5DB 1_555 1_555
C5 C6DB 1_555 1_555
C5 C7MD 1_555 1_555
C5 C7DB 1_555 1_555
C5 C7EF 1_555 1_555
C6 C7 1_555 1_555
C6 C3DB 1_555 1_555
C6 C3EF 1_555 1_555
C6 C4DB 1_555 1_555
C6 C4EF 1_555 1_555
C6 C5DB 1_555 1_555
C6 C7MD 1_555 1_555
C7 C3QB 1_555 1_555
C7 C3DB 1_555 1_555
C7 C3NE 1_555 1_555
C7 C3EF 1_555 1_555
C7 C4QB 1_555 1_555
C7 C4DB 1_555 1_555
C7 C4NE 1_555 1_555
C7 C4EF 1_555 1_555
C7 C5DB 1_555 1_555
C7 C6Q 1_555 1_555
C7 C7Q 1_555 1_555
C7 C7MD 1_555 1_555
C7 C7ZC 1_555 1_555
C7 O3DB 1_555 1_555
C7 O3EF 1_555 1_555
O3 C3MD 1_555 1_555
O3 C4MD 1_555 1_555
O3 C6DB 1_555 1_555
O3 C7DB 1_555 1_555
O3 C7EF 1_555 1_555
O3 O3MD 1_555 1_555
O2QB C1Q 1_555 1_555
O2CC C1C 1_555 1_555
O2RA C1P 1_555 1_555
C2Q C3Q 1_555 1_555
C2Q C3QB 1_555 1_555
C2Q C3ZC 1_555 1_555
C2Q C3NE 1_555 1_555
C2Q C4Q 1_555 1_555
C2Q C4QB 1_555 1_555
C2Q C4ZC 1_555 1_555
C2Q C4NE 1_555 1_555
C2Q C5Q 1_555 1_555
C2Q C5ZC 1_555 1_555
C2Q C6Q 1_555 1_555
C2Q C6QB 1_555 1_555
C2Q C7Q 1_555 1_555
C2Q C7QB 1_555 1_555
C2Q C7ZC 1_555 1_555
C2Q C7NE 1_555 1_555
C2C C5C 1_555 1_555
C2C C5CC 1_555 1_555
C2O C5O 1_555 1_555
C2O C5AD 1_555 1_555
C2P C5P 1_555 1_555
C2P C5RA 1_555 1_555
C2A C5A 1_555 1_555
C2A C5LD 1_555 1_555
C3Q C3MD 1_555 1_555
C3Q C3ZC 1_555 1_555
C3Q C4Q 1_555 1_555
C3Q C4MD 1_555 1_555
C3Q C4ZC 1_555 1_555
C3Q C5Q 1_555 1_555
C3Q C5ZC 1_555 1_555
C3Q C6DB 1_555 1_555
C3Q C6QB 1_555 1_555
C3Q C7DB 1_555 1_555
C3Q C7QB 1_555 1_555
C3Q C7NE 1_555 1_555
C3Q C7EF 1_555 1_555
C3QB C3DB 1_555 1_555
C3QB C3NE 1_555 1_555
C3QB C3EF 1_555 1_555
C3QB C4QB 1_555 1_555
C3QB C4DB 1_555 1_555
C3QB C4NE 1_555 1_555
C3QB C4EF 1_555 1_555
C3QB C5Q 1_555 1_555
C3QB C5ZC 1_555 1_555
C3QB C6Q 1_555 1_555
C3QB C7Q 1_555 1_555
C3QB C7MD 1_555 1_555
C3QB C7ZC 1_555 1_555
C3DB C3NE 1_555 1_555
C3DB C3EF 1_555 1_555
C3DB C4QB 1_555 1_555
C3DB C4DB 1_555 1_555
C3DB C4NE 1_555 1_555
C3DB C4EF 1_555 1_555
C3DB C5DB 1_555 1_555
C3DB C6Q 1_555 1_555
C3DB C7Q 1_555 1_555
C3DB C7MD 1_555 1_555
C3DB C7ZC 1_555 1_555
C3DB O3DB 1_555 1_555
C3DB O3EF 1_555 1_555
C3MD C3ZC 1_555 1_555
C3MD C4Q 1_555 1_555
C3MD C4MD 1_555 1_555
C3MD C4ZC 1_555 1_555
C3MD C5DB 1_555 1_555
C3MD C6DB 1_555 1_555
C3MD C6QB 1_555 1_555
C3MD C7DB 1_555 1_555
C3MD C7QB 1_555 1_555
C3MD C7NE 1_555 1_555
C3MD C7EF 1_555 1_555
C3MD O3MD 1_555 1_555
C3ZC C4Q 1_555 1_555
C3ZC C4MD 1_555 1_555
C3ZC C4ZC 1_555 1_555
C3ZC C5Q 1_555 1_555
C3ZC C5ZC 1_555 1_555
C3ZC C6DB 1_555 1_555
C3ZC C6QB 1_555 1_555
C3ZC C7DB 1_555 1_555
C3ZC C7QB 1_555 1_555
C3ZC C7NE 1_555 1_555
C3ZC C7EF 1_555 1_555
C3ZC O3ZC 1_555 1_555
C3ZC O3Q 1_555 1_555
C3NE C3EF 1_555 1_555
C3NE C4QB 1_555 1_555
C3NE C4DB 1_555 1_555
C3NE C4NE 1_555 1_555
C3NE C4EF 1_555 1_555
C3NE C5Q 1_555 1_555
C3NE C5ZC 1_555 1_555
C3NE C6Q 1_555 1_555
C3NE C7Q 1_555 1_555
C3NE C7MD 1_555 1_555
C3NE C7ZC 1_555 1_555
C3NE O3NE 1_555 1_555
C3NE O3QB 1_555 1_555
C3EF C4QB 1_555 1_555
C3EF C4DB 1_555 1_555
C3EF C4NE 1_555 1_555
C3EF C4EF 1_555 1_555
C3EF C5DB 1_555 1_555
C3EF C6Q 1_555 1_555
C3EF C7Q 1_555 1_555
C3EF C7MD 1_555 1_555
C3EF C7ZC 1_555 1_555
C3EF O3DB 1_555 1_555
C3EF O3EF 1_555 1_555
C3C C3ED 1_555 1_555
C3C C3AD 1_555 1_555
C3C C4C 1_555 1_555
C3C C4O 1_555 1_555
C3C C4ED 1_555 1_555
C3C C4AD 1_555 1_555
C3C C5C 1_555 1_555
C3C C5CC 1_555 1_555
C3C C6CC 1_555 1_555
C3C C6GC 1_555 1_555
C3C C7CC 1_555 1_555
C3C C7GC 1_555 1_555
C3C C7OF 1_555 1_555
C3C C7AG 1_555 1_555
C3O C3ED 1_555 1_555
C3O C3AD 1_555 1_555
C3O C4C 1_555 1_555
C3O C4O 1_555 1_555
C3O C4ED 1_555 1_555
C3O C4AD 1_555 1_555
C3O C5O 1_555 1_555
C3O C5AD 1_555 1_555
C3O C6CC 1_555 1_555
C3O C6GC 1_555 1_555
C3O C7CC 1_555 1_555
C3O C7GC 1_555 1_555
C3O C7OF 1_555 1_555
C3O C7AG 1_555 1_555
C3GC C3CC 1_555 1_555
C3GC C3OF 1_555 1_555
C3GC C3AG 1_555 1_555
C3GC C4GC 1_555 1_555
C3GC C4CC 1_555 1_555
C3GC C4OF 1_555 1_555
C3GC C4AG 1_555 1_555
C3GC C5O 1_555 1_555
C3GC C5AD 1_555 1_555
C3GC C6C 1_555 1_555
C3GC C6O 1_555 1_555
C3GC C7C 1_555 1_555
C3GC C7O 1_555 1_555
C3GC C7ED 1_555 1_555
C3GC C7AD 1_555 1_555
C3CC C3OF 1_555 1_555
C3CC C3AG 1_555 1_555
C3CC C4GC 1_555 1_555
C3CC C4CC 1_555 1_555
C3CC C4OF 1_555 1_555
C3CC C4AG 1_555 1_555
C3CC C5C 1_555 1_555
C3CC C5CC 1_555 1_555
C3CC C6C 1_555 1_555
C3CC C6O 1_555 1_555
C3CC C7C 1_555 1_555
C3CC C7O 1_555 1_555
C3CC C7ED 1_555 1_555
C3CC C7AD 1_555 1_555
C3ED C3AD 1_555 1_555
C3ED C4C 1_555 1_555
C3ED C4O 1_555 1_555
C3ED C4ED 1_555 1_555
C3ED C4AD 1_555 1_555
C3ED C5C 1_555 1_555
C3ED C5CC 1_555 1_555
C3ED C6CC 1_555 1_555
C3ED C6GC 1_555 1_555
C3ED C7CC 1_555 1_555
C3ED C7GC 1_555 1_555
C3ED C7OF 1_555 1_555
C3ED C7AG 1_555 1_555
C3ED O3C 1_555 1_555
C3ED O3ED 1_555 1_555
C3AD C4C 1_555 1_555
C3AD C4O 1_555 1_555
C3AD C4ED 1_555 1_555
C3AD C4AD 1_555 1_555
C3AD C5O 1_555 1_555
C3AD C5AD 1_555 1_555
C3AD C6CC 1_555 1_555
C3AD C6GC 1_555 1_555
C3AD C7CC 1_555 1_555
C3AD C7GC 1_555 1_555
C3AD C7OF 1_555 1_555
C3AD C7AG 1_555 1_555
C3AD O3AD 1_555 1_555
C3AD O3O 1_555 1_555
C3OF C3AG 1_555 1_555
C3OF C4GC 1_555 1_555
C3OF C4CC 1_555 1_555
C3OF C4OF 1_555 1_555
C3OF C4AG 1_555 1_555
C3OF C5O 1_555 1_555
C3OF C5AD 1_555 1_555
C3OF C6C 1_555 1_555
C3OF C6O 1_555 1_555
C3OF C7C 1_555 1_555
C3OF C7O 1_555 1_555
C3OF C7ED 1_555 1_555
C3OF C7AD 1_555 1_555
C3OF O3OF 1_555 1_555
C3OF O3GC 1_555 1_555
C3AG C4GC 1_555 1_555
C3AG C4CC 1_555 1_555
C3AG C4OF 1_555 1_555
C3AG C4AG 1_555 1_555
C3AG C5C 1_555 1_555
C3AG C5CC 1_555 1_555
C3AG C6C 1_555 1_555
C3AG C6O 1_555 1_555
C3AG C7C 1_555 1_555
C3AG C7O 1_555 1_555
C3AG C7ED 1_555 1_555
C3AG C7AD 1_555 1_555
C3AG O3CC 1_555 1_555
C3AG O3AG 1_555 1_555
C3P C3BD 1_555 1_555
C3P C3LD 1_555 1_555
C3P C4P 1_555 1_555
C3P C4A 1_555 1_555
C3P C4BD 1_555 1_555
C3P C4LD 1_555 1_555
C3P C5P 1_555 1_555
C3P C5RA 1_555 1_555
C3P C6RA 1_555 1_555
C3P C6HA 1_555 1_555
C3P C7RA 1_555 1_555
C3P C7HA 1_555 1_555
C3P C7FE 1_555 1_555
C3P C7QD 1_555 1_555
C3A C3BD 1_555 1_555
C3A C3LD 1_555 1_555
C3A C4P 1_555 1_555
C3A C4A 1_555 1_555
C3A C4BD 1_555 1_555
C3A C4LD 1_555 1_555
C3A C5A 1_555 1_555
C3A C5LD 1_555 1_555
C3A C6RA 1_555 1_555
C3A C6HA 1_555 1_555
C3A C7RA 1_555 1_555
C3A C7HA 1_555 1_555
C3A C7FE 1_555 1_555
C3A C7QD 1_555 1_555
C3HA C3RA 1_555 1_555
C3HA C3FE 1_555 1_555
C3HA C3QD 1_555 1_555
C3HA C4HA 1_555 1_555
C3HA C4RA 1_555 1_555
C3HA C4FE 1_555 1_555
C3HA C4QD 1_555 1_555
C3HA C5A 1_555 1_555
C3HA C5LD 1_555 1_555
C3HA C6P 1_555 1_555
C3HA C6A 1_555 1_555
C3HA C7P 1_555 1_555
C3HA C7A 1_555 1_555
C3HA C7BD 1_555 1_555
C3HA C7LD 1_555 1_555
C3RA C3FE 1_555 1_555
C3RA C3QD 1_555 1_555
C3RA C4HA 1_555 1_555
C3RA C4RA 1_555 1_555
C3RA C4FE 1_555 1_555
C3RA C4QD 1_555 1_555
C3RA C5P 1_555 1_555
C3RA C5RA 1_555 1_555
C3RA C6P 1_555 1_555
C3RA C6A 1_555 1_555
C3RA C7P 1_555 1_555
C3RA C7A 1_555 1_555
C3RA C7BD 1_555 1_555
C3RA C7LD 1_555 1_555
C3BD C3LD 1_555 1_555
C3BD C4P 1_555 1_555
C3BD C4A 1_555 1_555
C3BD C4BD 1_555 1_555
C3BD C4LD 1_555 1_555
C3BD C5P 1_555 1_555
C3BD C5RA 1_555 1_555
C3BD C6RA 1_555 1_555
C3BD C6HA 1_555 1_555
C3BD C7RA 1_555 1_555
C3BD C7HA 1_555 1_555
C3BD C7FE 1_555 1_555
C3BD C7QD 1_555 1_555
C3BD O3P 1_555 1_555
C3BD O3BD 1_555 1_555
C3LD C4P 1_555 1_555
C3LD C4A 1_555 1_555
C3LD C4BD 1_555 1_555
C3LD C4LD 1_555 1_555
C3LD C5A 1_555 1_555
C3LD C5LD 1_555 1_555
C3LD C6RA 1_555 1_555
C3LD C6HA 1_555 1_555
C3LD C7RA 1_555 1_555
C3LD C7HA 1_555 1_555
C3LD C7FE 1_555 1_555
C3LD C7QD 1_555 1_555
C3LD O3LD 1_555 1_555
C3LD O3A 1_555 1_555
C3FE C3QD 1_555 1_555
C3FE C4HA 1_555 1_555
C3FE C4RA 1_555 1_555
C3FE C4FE 1_555 1_555
C3FE C4QD 1_555 1_555
C3FE C5A 1_555 1_555
C3FE C5LD 1_555 1_555
C3FE C6P 1_555 1_555
C3FE C6A 1_555 1_555
C3FE C7P 1_555 1_555
C3FE C7A 1_555 1_555
C3FE C7BD 1_555 1_555
C3FE C7LD 1_555 1_555
C3FE O3FE 1_555 1_555
C3FE O3HA 1_555 1_555
C3QD C4HA 1_555 1_555
C3QD C4RA 1_555 1_555
C3QD C4FE 1_555 1_555
C3QD C4QD 1_555 1_555
C3QD C5P 1_555 1_555
C3QD C5RA 1_555 1_555
C3QD C6P 1_555 1_555
C3QD C6A 1_555 1_555
C3QD C7P 1_555 1_555
C3QD C7A 1_555 1_555
C3QD C7BD 1_555 1_555
C3QD C7LD 1_555 1_555
C3QD O3RA 1_555 1_555
C3QD O3QD 1_555 1_555
C4Q C4MD 1_555 1_555
C4Q C4ZC 1_555 1_555
C4Q C5Q 1_555 1_555
C4Q C6DB 1_555 1_555
C4Q C6QB 1_555 1_555
C4Q C7DB 1_555 1_555
C4Q C7QB 1_555 1_555
C4Q C7NE 1_555 1_555
C4Q C7EF 1_555 1_555
C4Q O3ZC 1_555 1_555
C4QB C4NE 1_555 1_555
C4QB C4EF 1_555 1_555
C4QB C5ZC 1_555 1_555
C4QB C6Q 1_555 1_555
C4QB C7Q 1_555 1_555
C4QB C7MD 1_555 1_555
C4QB C7ZC 1_555 1_555
C4QB O3NE 1_555 1_555
C4DB C4NE 1_555 1_555
C4DB C4EF 1_555 1_555
C4DB C5DB 1_555 1_555
C4DB C6Q 1_555 1_555
C4DB C7Q 1_555 1_555
C4DB C7MD 1_555 1_555
C4DB C7ZC 1_555 1_555
C4DB O3EF 1_555 1_555
C4MD C5DB 1_555 1_555
C4MD C6DB 1_555 1_555
C4MD C6QB 1_555 1_555
C4MD C7DB 1_555 1_555
C4MD C7QB 1_555 1_555
C4MD C7NE 1_555 1_555
C4MD C7EF 1_555 1_555
C4ZC C5ZC 1_555 1_555
C4ZC C6DB 1_555 1_555
C4ZC C6QB 1_555 1_555
C4ZC C7DB 1_555 1_555
C4ZC C7QB 1_555 1_555
C4ZC C7NE 1_555 1_555
C4ZC C7EF 1_555 1_555
C4ZC O3Q 1_555 1_555
C4NE C5Q 1_555 1_555
C4NE C6Q 1_555 1_555
C4NE C7Q 1_555 1_555
C4NE C7MD 1_555 1_555
C4NE C7ZC 1_555 1_555
C4NE O3QB 1_555 1_555
C4EF C6Q 1_555 1_555
C4EF C7Q 1_555 1_555
C4EF C7MD 1_555 1_555
C4EF C7ZC 1_555 1_555
C4EF O3DB 1_555 1_555
C4C C4ED 1_555 1_555
C4C C4AD 1_555 1_555
C4C C5C 1_555 1_555
C4C C6CC 1_555 1_555
C4C C6GC 1_555 1_555
C4C C7CC 1_555 1_555
C4C C7GC 1_555 1_555
C4C C7OF 1_555 1_555
C4C C7AG 1_555 1_555
C4C O3ED 1_555 1_555
C4O C4ED 1_555 1_555
C4O C4AD 1_555 1_555
C4O C5O 1_555 1_555
C4O C6CC 1_555 1_555
C4O C6GC 1_555 1_555
C4O C7CC 1_555 1_555
C4O C7GC 1_555 1_555
C4O C7OF 1_555 1_555
C4O C7AG 1_555 1_555
C4O O3AD 1_555 1_555
C4GC C4OF 1_555 1_555
C4GC C4AG 1_555 1_555
C4GC C5AD 1_555 1_555
C4GC C6C 1_555 1_555
C4GC C6O 1_555 1_555
C4GC C7C 1_555 1_555
C4GC C7O 1_555 1_555
C4GC C7ED 1_555 1_555
C4GC C7AD 1_555 1_555
C4GC O3OF 1_555 1_555
C4CC C4OF 1_555 1_555
C4CC C4AG 1_555 1_555
C4CC C5CC 1_555 1_555
C4CC C6C 1_555 1_555
C4CC C6O 1_555 1_555
C4CC C7C 1_555 1_555
C4CC C7O 1_555 1_555
C4CC C7ED 1_555 1_555
C4CC C7AD 1_555 1_555
C4CC O3AG 1_555 1_555
C4ED C5CC 1_555 1_555
C4ED C6CC 1_555 1_555
C4ED C6GC 1_555 1_555
C4ED C7CC 1_555 1_555
C4ED C7GC 1_555 1_555
C4ED C7OF 1_555 1_555
C4ED C7AG 1_555 1_555
C4ED O3C 1_555 1_555
C4AD C5AD 1_555 1_555
C4AD C6CC 1_555 1_555
C4AD C6GC 1_555 1_555
C4AD C7CC 1_555 1_555
C4AD C7GC 1_555 1_555
C4AD C7OF 1_555 1_555
C4AD C7AG 1_555 1_555
C4AD O3O 1_555 1_555
C4OF C5O 1_555 1_555
C4OF C6C 1_555 1_555
C4OF C6O 1_555 1_555
C4OF C7C 1_555 1_555
C4OF C7O 1_555 1_555
C4OF C7ED 1_555 1_555
C4OF C7AD 1_555 1_555
C4OF O3GC 1_555 1_555
C4AG C5C 1_555 1_555
C4AG C6C 1_555 1_555
C4AG C6O 1_555 1_555
C4AG C7C 1_555 1_555
C4AG C7O 1_555 1_555
C4AG C7ED 1_555 1_555
C4AG C7AD 1_555 1_555
C4AG O3CC 1_555 1_555
C4P C4BD 1_555 1_555
C4P C4LD 1_555 1_555
C4P C5P 1_555 1_555
C4P C6RA 1_555 1_555
C4P C6HA 1_555 1_555
C4P C7RA 1_555 1_555
C4P C7HA 1_555 1_555
C4P C7FE 1_555 1_555
C4P C7QD 1_555 1_555
C4P O3BD 1_555 1_555
C4A C4BD 1_555 1_555
C4A C4LD 1_555 1_555
C4A C5A 1_555 1_555
C4A C6RA 1_555 1_555
C4A C6HA 1_555 1_555
C4A C7RA 1_555 1_555
C4A C7HA 1_555 1_555
C4A C7FE 1_555 1_555
C4A C7QD 1_555 1_555
C4A O3LD 1_555 1_555
C4HA C4FE 1_555 1_555
C4HA C4QD 1_555 1_555
C4HA C5LD 1_555 1_555
C4HA C6P 1_555 1_555
C4HA C6A 1_555 1_555
C4HA C7P 1_555 1_555
C4HA C7A 1_555 1_555
C4HA C7BD 1_555 1_555
C4HA C7LD 1_555 1_555
C4HA O3FE 1_555 1_555
C4RA C4FE 1_555 1_555
C4RA C4QD 1_555 1_555
C4RA C5RA 1_555 1_555
C4RA C6P 1_555 1_555
C4RA C6A 1_555 1_555
C4RA C7P 1_555 1_555
C4RA C7A 1_555 1_555
C4RA C7BD 1_555 1_555
C4RA C7LD 1_555 1_555
C4RA O3QD 1_555 1_555
C4BD C5RA 1_555 1_555
C4BD C6RA 1_555 1_555
C4BD C6HA 1_555 1_555
C4BD C7RA 1_555 1_555
C4BD C7HA 1_555 1_555
C4BD C7FE 1_555 1_555
C4BD C7QD 1_555 1_555
C4BD O3P 1_555 1_555
C4LD C5LD 1_555 1_555
C4LD C6RA 1_555 1_555
C4LD C6HA 1_555 1_555
C4LD C7RA 1_555 1_555
C4LD C7HA 1_555 1_555
C4LD C7FE 1_555 1_555
C4LD C7QD 1_555 1_555
C4LD O3A 1_555 1_555
C4FE C5A 1_555 1_555
C4FE C6P 1_555 1_555
C4FE C6A 1_555 1_555
C4FE C7P 1_555 1_555
C4FE C7A 1_555 1_555
C4FE C7BD 1_555 1_555
C4FE C7LD 1_555 1_555
C4FE O3HA 1_555 1_555
C4QD C5P 1_555 1_555
C4QD C6P 1_555 1_555
C4QD C6A 1_555 1_555
C4QD C7P 1_555 1_555
C4QD C7A 1_555 1_555
C4QD C7BD 1_555 1_555
C4QD C7LD 1_555 1_555
C4QD O3RA 1_555 1_555
C5Q C5ZC 1_555 1_555
C5Q C6Q 1_555 1_555
C5Q C6QB 1_555 1_555
C5Q C7Q 1_555 1_555
C5Q C7QB 1_555 1_555
C5Q C7ZC 1_555 1_555
C5Q C7NE 1_555 1_555
C5DB C6DB 1_555 1_555
C5DB C7MD 1_555 1_555
C5DB C7DB 1_555 1_555
C5DB C7EF 1_555 1_555
C5ZC C6Q 1_555 1_555
C5ZC C6QB 1_555 1_555
C5ZC C7Q 1_555 1_555
C5ZC C7QB 1_555 1_555
C5ZC C7ZC 1_555 1_555
C5ZC C7NE 1_555 1_555
C5C C5CC 1_555 1_555
C5C C6C 1_555 1_555
C5C C6CC 1_555 1_555
C5C C7C 1_555 1_555
C5C C7ED 1_555 1_555
C5C C7CC 1_555 1_555
C5C C7AG 1_555 1_555
C5O C5AD 1_555 1_555
C5O C6O 1_555 1_555
C5O C6GC 1_555 1_555
C5O C7O 1_555 1_555
C5O C7GC 1_555 1_555
C5O C7AD 1_555 1_555
C5O C7OF 1_555 1_555
C5CC C6C 1_555 1_555
C5CC C6CC 1_555 1_555
C5CC C7C 1_555 1_555
C5CC C7ED 1_555 1_555
C5CC C7CC 1_555 1_555
C5CC C7AG 1_555 1_555
C5AD C6O 1_555 1_555
C5AD C6GC 1_555 1_555
C5AD C7O 1_555 1_555
C5AD C7GC 1_555 1_555
C5AD C7AD 1_555 1_555
C5AD C7OF 1_555 1_555
C5P C5RA 1_555 1_555
C5P C6P 1_555 1_555
C5P C6RA 1_555 1_555
C5P C7P 1_555 1_555
C5P C7BD 1_555 1_555
C5P C7RA 1_555 1_555
C5P C7QD 1_555 1_555
C5A C5LD 1_555 1_555
C5A C6A 1_555 1_555
C5A C6HA 1_555 1_555
C5A C7A 1_555 1_555
C5A C7HA 1_555 1_555
C5A C7LD 1_555 1_555
C5A C7FE 1_555 1_555
C5RA C6P 1_555 1_555
C5RA C6RA 1_555 1_555
C5RA C7P 1_555 1_555
C5RA C7BD 1_555 1_555
C5RA C7RA 1_555 1_555
C5RA C7QD 1_555 1_555
C5LD C6A 1_555 1_555
C5LD C6HA 1_555 1_555
C5LD C7A 1_555 1_555
C5LD C7HA 1_555 1_555
C5LD C7LD 1_555 1_555
C5LD C7FE 1_555 1_555
C6Q C7Q 1_555 1_555
C6Q C7MD 1_555 1_555
C6Q C7ZC 1_555 1_555
C6Q O3NE 1_555 1_555
C6Q O3QB 1_555 1_555
C6DB C6QB 1_555 1_555
C6DB C7DB 1_555 1_555
C6DB C7QB 1_555 1_555
C6DB C7NE 1_555 1_555
C6DB C7EF 1_555 1_555
C6DB O3MD 1_555 1_555
C6QB C7DB 1_555 1_555
C6QB C7QB 1_555 1_555
C6QB C7NE 1_555 1_555
C6QB C7EF 1_555 1_555
C6QB O3ZC 1_555 1_555
C6QB O3Q 1_555 1_555
C6C C6O 1_555 1_555
C6C C7C 1_555 1_555
C6C C7O 1_555 1_555
C6C C7ED 1_555 1_555
C6C C7AD 1_555 1_555
C6C O3CC 1_555 1_555
C6C O3AG 1_555 1_555
C6O C7C 1_555 1_555
C6O C7O 1_555 1_555
C6O C7ED 1_555 1_555
C6O C7AD 1_555 1_555
C6O O3OF 1_555 1_555
C6O O3GC 1_555 1_555
C6CC C6GC 1_555 1_555
C6CC C7CC 1_555 1_555
C6CC C7GC 1_555 1_555
C6CC C7OF 1_555 1_555
C6CC C7AG 1_555 1_555
C6CC O3C 1_555 1_555
C6CC O3ED 1_555 1_555
C6GC C7CC 1_555 1_555
C6GC C7GC 1_555 1_555
C6GC C7OF 1_555 1_555
C6GC C7AG 1_555 1_555
C6GC O3AD 1_555 1_555
C6GC O3O 1_555 1_555
C6P C6A 1_555 1_555
C6P C7P 1_555 1_555
C6P C7A 1_555 1_555
C6P C7BD 1_555 1_555
C6P C7LD 1_555 1_555
C6P O3RA 1_555 1_555
C6P O3QD 1_555 1_555
C6A C7P 1_555 1_555
C6A C7A 1_555 1_555
C6A C7BD 1_555 1_555
C6A C7LD 1_555 1_555
C6A O3FE 1_555 1_555
C6A O3HA 1_555 1_555
C6RA C6HA 1_555 1_555
C6RA C7RA 1_555 1_555
C6RA C7HA 1_555 1_555
C6RA C7FE 1_555 1_555
C6RA C7QD 1_555 1_555
C6RA O3P 1_555 1_555
C6RA O3BD 1_555 1_555
C6HA C7RA 1_555 1_555
C6HA C7HA 1_555 1_555
C6HA C7FE 1_555 1_555
C6HA C7QD 1_555 1_555
C6HA O3LD 1_555 1_555
C6HA O3A 1_555 1_555
C7Q C7MD 1_555 1_555
C7Q C7ZC 1_555 1_555
C7Q O3NE 1_555 1_555
C7Q O3QB 1_555 1_555
C7MD C7ZC 1_555 1_555
C7MD O3DB 1_555 1_555
C7MD O3EF 1_555 1_555
C7DB C7QB 1_555 1_555
C7DB C7NE 1_555 1_555
C7DB C7EF 1_555 1_555
C7DB O3MD 1_555 1_555
C7QB C7NE 1_555 1_555
C7QB C7EF 1_555 1_555
C7QB O3ZC 1_555 1_555
C7QB O3Q 1_555 1_555
C7ZC O3NE 1_555 1_555
C7ZC O3QB 1_555 1_555
C7NE C7EF 1_555 1_555
C7NE O3ZC 1_555 1_555
C7NE O3Q 1_555 1_555
C7EF O3MD 1_555 1_555
C7C C7O 1_555 1_555
C7C C7ED 1_555 1_555
C7C C7AD 1_555 1_555
C7C O3CC 1_555 1_555
C7C O3AG 1_555 1_555
C7O C7ED 1_555 1_555
C7O C7AD 1_555 1_555
C7O O3OF 1_555 1_555
C7O O3GC 1_555 1_555
C7ED C7AD 1_555 1_555
C7ED O3CC 1_555 1_555
C7ED O3AG 1_555 1_555
C7CC C7GC 1_555 1_555
C7CC C7OF 1_555 1_555
C7CC C7AG 1_555 1_555
C7CC O3C 1_555 1_555
C7CC O3ED 1_555 1_555
C7GC C7OF 1_555 1_555
C7GC C7AG 1_555 1_555
C7GC O3AD 1_555 1_555
C7GC O3O 1_555 1_555
C7AD O3OF 1_555 1_555
C7AD O3GC 1_555 1_555
C7OF C7AG 1_555 1_555
C7OF O3AD 1_555 1_555
C7OF O3O 1_555 1_555
C7AG O3C 1_555 1_555
C7AG O3ED 1_555 1_555
C7P C7A 1_555 1_555
C7P C7BD 1_555 1_555
C7P C7LD 1_555 1_555
C7P O3RA 1_555 1_555
C7P O3QD 1_555 1_555
C7A C7BD 1_555 1_555
C7A C7LD 1_555 1_555
C7A O3FE 1_555 1_555
C7A O3HA 1_555 1_555
C7BD C7LD 1_555 1_555
C7BD O3RA 1_555 1_555
C7BD O3QD 1_555 1_555
C7RA C7HA 1_555 1_555
C7RA C7FE 1_555 1_555
C7RA C7QD 1_555 1_555
C7RA O3P 1_555 1_555
C7RA O3BD 1_555 1_555
C7HA C7FE 1_555 1_555
C7HA C7QD 1_555 1_555
C7HA O3LD 1_555 1_555
C7HA O3A 1_555 1_555
C7LD O3FE 1_555 1_555
C7LD O3HA 1_555 1_555
C7FE C7QD 1_555 1_555
C7FE O3LD 1_555 1_555
C7FE O3A 1_555 1_555
C7QD O3P 1_555 1_555
C7QD O3BD 1_555 1_555
O3ZC O3Q 1_555 1_555
O3DB O3EF 1_555 1_555
O3NE O3QB 1_555 1_555
O3C O3ED 1_555 1_555
O3AD O3O 1_555 1_555
O3CC O3AG 1_555 1_555
O3OF O3GC 1_555 1_555
O3P O3BD 1_555 1_555
O3LD O3A 1_555 1_555
O3RA O3QD 1_555 1_555
O3FE O3HA 1_555 1_555

#END
