
#######################################################################
#
#                 Cambridge Crystallographic Data Centre
#                                CCDC 
#
#######################################################################
#
# If this CIF has been generated from an entry in the Cambridge 
# Structural Database, then it will include bibliographic, chemical, 
# crystal, experimental, refinement or atomic coordinate data resulting 
# from the CCDC's data processing and validation procedures.
#
#######################################################################

data_UDEMEW
_chemical_name_common            MIL-100(Cr)
_chemical_formula_moiety         '(C54 H30 Cr9 F3 O45)n,85.5n(H2 O1)'
_chemical_name_systematic        
'catena-(hexakis(\m~6~-Benzene-1,3,5-tricarboxylato)-tris(\m~3~-oxo)-hexaaqua-trifluoro-nona-chromium(iii) hydrate)'
_symmetry_cell_setting           cubic
_symmetry_space_group_name_H-M   'F d -3 m'
_symmetry_Int_Tables_number      227
_space_group_name_Hall           '-F 4vw 2vw 3'
loop_
_symmetry_equiv_pos_site_id
_symmetry_equiv_pos_as_xyz
1 x,y,z
2 -y,1/4+x,1/4+z
3 x,1/4-y,1/4-z
4 z,x,y
5 3/4-x,1/4-y,1/2+z
6 3/4+y,1/4+x,1/2-z
7 -x,1/4+z,1/4+y
8 3/4+y,-x,3/4+z
9 3/4-x,y,3/4-z
10 3/4-z,1/4-x,1/2+y
11 -y,-x,-z
12 3/4+x,-z,3/4+y
13 z,1/4-x,1/4-y
14 -x,-z,-y
15 3/4-z,x,3/4-y
16 3/4+x,1/4+z,1/2-y
17 y,z,x
18 3/4+z,-y,3/4+x
19 1/2-z,3/4+y,1/4+x
20 3/4+z,3/4+y,-x
21 1/2+y,3/4-z,1/4-x
22 -z,-y,-x
23 1/4-y,z,1/4-x
24 3/4-y,3/4-z,x
25 1/4+z,-y,1/4+x
26 x,1/2+y,1/2+z
27 -y,3/4+x,3/4+z
28 x,3/4-y,3/4-z
29 z,1/2+x,1/2+y
30 3/4-x,3/4-y,z
31 3/4+y,3/4+x,-z
32 -x,3/4+z,3/4+y
33 3/4+y,1/2-x,1/4+z
34 3/4-x,1/2+y,1/4-z
35 3/4-z,3/4-x,y
36 -y,1/2-x,1/2-z
37 3/4+x,1/2-z,1/4+y
38 z,3/4-x,3/4-y
39 -x,1/2-z,1/2-y
40 3/4-z,1/2+x,1/4-y
41 3/4+x,3/4+z,-y
42 y,1/2+z,1/2+x
43 3/4+z,1/2-y,1/4+x
44 1/2-z,1/4+y,3/4+x
45 3/4+z,1/4+y,1/2-x
46 1/2+y,1/4-z,3/4-x
47 -z,1/2-y,1/2-x
48 1/4-y,1/2+z,3/4-x
49 3/4-y,1/4-z,1/2+x
50 1/4+z,1/2-y,3/4+x
51 1/2+x,y,1/2+z
52 1/2-y,1/4+x,3/4+z
53 1/2+x,1/4-y,3/4-z
54 1/2+z,x,1/2+y
55 1/4-x,1/4-y,z
56 1/4+y,1/4+x,-z
57 1/2-x,1/4+z,3/4+y
58 1/4+y,-x,1/4+z
59 1/4-x,y,1/4-z
60 1/4-z,1/4-x,y
61 1/2-y,-x,1/2-z
62 1/4+x,-z,1/4+y
63 1/2+z,1/4-x,3/4-y
64 1/2-x,-z,1/2-y
65 1/4-z,x,1/4-y
66 1/4+x,1/4+z,-y
67 1/2+y,z,1/2+x
68 -z,3/4+y,3/4+x
69 1/4+z,3/4+y,1/2-x
70 y,3/4-z,3/4-x
71 1/2-z,-y,1/2-x
72 3/4-y,z,3/4-x
73 1/4-y,3/4-z,1/2+x
74 1/2+x,1/2+y,z
75 1/2-y,3/4+x,1/4+z
76 1/2+x,3/4-y,1/4-z
77 1/2+z,1/2+x,y
78 1/4-x,3/4-y,1/2+z
79 1/4+y,3/4+x,1/2-z
80 1/2-x,3/4+z,1/4+y
81 1/4+y,1/2-x,3/4+z
82 1/4-x,1/2+y,3/4-z
83 1/4-z,3/4-x,1/2+y
84 1/2-y,1/2-x,-z
85 1/4+x,1/2-z,3/4+y
86 1/2+z,3/4-x,1/4-y
87 1/2-x,1/2-z,-y
88 1/4-z,1/2+x,3/4-y
89 1/4+x,3/4+z,1/2-y
90 1/2+y,1/2+z,x
91 -z,1/4+y,1/4+x
92 1/4+z,1/4+y,-x
93 y,1/4-z,1/4-x
94 1/2-z,1/2-y,-x
95 3/4-y,1/2+z,1/4-x
96 1/4-y,1/4-z,x
97 -x,-y,-z
98 y,3/4-x,3/4-z
99 -x,3/4+y,3/4+z
100 -z,-x,-y
101 1/4+x,3/4+y,1/2-z
102 1/4-y,3/4-x,1/2+z
103 x,3/4-z,3/4-y
104 1/4-y,x,1/4-z
105 1/4+x,-y,1/4+z
106 1/4+z,3/4+x,1/2-y
107 y,x,z
108 1/4-x,z,1/4-y
109 -z,3/4+x,3/4+y
110 x,z,y
111 1/4+z,-x,1/4+y
112 1/4-x,3/4-z,1/2+y
113 -y,-z,-x
114 1/4-z,y,1/4-x
115 1/2+z,1/4-y,3/4-x
116 1/4-z,1/4-y,x
117 1/2-y,1/4+z,3/4+x
118 z,y,x
119 3/4+y,-z,3/4+x
120 1/4+y,1/4+z,-x
121 3/4-z,y,3/4-x
122 -x,1/2-y,1/2-z
123 y,1/4-x,1/4-z
124 -x,1/4+y,1/4+z
125 -z,1/2-x,1/2-y
126 1/4+x,1/4+y,-z
127 1/4-y,1/4-x,z
128 x,1/4-z,1/4-y
129 1/4-y,1/2+x,3/4-z
130 1/4+x,1/2-y,3/4+z
131 1/4+z,1/4+x,-y
132 y,1/2+x,1/2+z
133 1/4-x,1/2+z,3/4-y
134 -z,1/4+x,1/4+y
135 x,1/2+z,1/2+y
136 1/4+z,1/2-x,3/4+y
137 1/4-x,1/4-z,y
138 -y,1/2-z,1/2-x
139 1/4-z,1/2+y,3/4-x
140 1/2+z,3/4-y,1/4-x
141 1/4-z,3/4-y,1/2+x
142 1/2-y,3/4+z,1/4+x
143 z,1/2+y,1/2+x
144 3/4+y,1/2-z,1/4+x
145 1/4+y,3/4+z,1/2-x
146 3/4-z,1/2+y,1/4-x
147 1/2-x,-y,1/2-z
148 1/2+y,3/4-x,1/4-z
149 1/2-x,3/4+y,1/4+z
150 1/2-z,-x,1/2-y
151 3/4+x,3/4+y,-z
152 3/4-y,3/4-x,z
153 1/2+x,3/4-z,1/4-y
154 3/4-y,x,3/4-z
155 3/4+x,-y,3/4+z
156 3/4+z,3/4+x,-y
157 1/2+y,x,1/2+z
158 3/4-x,z,3/4-y
159 1/2-z,3/4+x,1/4+y
160 1/2+x,z,1/2+y
161 3/4+z,-x,3/4+y
162 3/4-x,3/4-z,y
163 1/2-y,-z,1/2-x
164 z,1/4-y,1/4-x
165 3/4-z,1/4-y,1/2+x
166 -y,1/4+z,1/4+x
167 1/2+z,y,1/2+x
168 1/4+y,-z,1/4+x
169 3/4+y,1/4+z,1/2-x
170 1/2-x,1/2-y,-z
171 1/2+y,1/4-x,3/4-z
172 1/2-x,1/4+y,3/4+z
173 1/2-z,1/2-x,-y
174 3/4+x,1/4+y,1/2-z
175 3/4-y,1/4-x,1/2+z
176 1/2+x,1/4-z,3/4-y
177 3/4-y,1/2+x,1/4-z
178 3/4+x,1/2-y,1/4+z
179 3/4+z,1/4+x,1/2-y
180 1/2+y,1/2+x,z
181 3/4-x,1/2+z,1/4-y
182 1/2-z,1/4+x,3/4+y
183 1/2+x,1/2+z,y
184 3/4+z,1/2-x,1/4+y
185 3/4-x,1/4-z,1/2+y
186 1/2-y,1/2-z,-x
187 z,3/4-y,3/4-x
188 3/4-z,3/4-y,x
189 -y,3/4+z,3/4+x
190 1/2+z,1/2+y,x
191 1/4+y,1/2-z,3/4+x
192 3/4+y,3/4+z,-x
_cell_length_a                   72.9057(10)
_cell_length_b                   72.9057(10)
_cell_length_c                   72.9057(10)
_cell_angle_alpha                90
_cell_angle_beta                 90
_cell_angle_gamma                90
_cell_volume                     387511
_exptl_crystal_colour            green
_cell_formula_units_Z            96
loop_
_atom_site_label
_atom_site_type_symbol
_atom_site_fract_x
_atom_site_fract_y
_atom_site_fract_z
_atom_site_U_iso_or_equiv
_atom_site_thermal_displace_type
O2 O 0.0494 0.2006 0.9550 0.0000 Uiso
O3 O 0.2158 0.9723 0.0121 0.0000 Uiso
C1 C 0.2456 0.9826 0.0044 0.0000 Uiso
C2 C 0.2385 0.9877 -0.0123 0.0000 Uiso
C3 C 0.2323 0.9776 0.0177 0.0000 Uiso
C2V C 0.2623 0.9877 0.0115 0.0000 Uiso
C1GB C 0.2456 1.0044 -0.0174 0.0000 Uiso
O3ID O 0.2379 0.9723 0.0342 0.0000 Uiso
C1V C 0.2674 1.0044 0.0044 0.0000 Uiso
C2GB C 0.2623 1.0115 -0.0123 0.0000 Uiso
C3GB C 0.2323 1.0177 -0.0224 0.0000 Uiso
C3V C 0.2724 1.0177 0.0177 0.0000 Uiso
O3GB O 0.2379 1.0342 -0.0277 0.0000 Uiso
O3ED O 0.2158 1.0121 -0.0277 0.0000 Uiso
O3V O 0.2777 1.0121 0.0342 0.0000 Uiso
O3VD O 0.2777 1.0342 0.0121 0.0000 Uiso
O4 O 0.3750 0.1848 0.8750 0.0000 Uiso
O5 O 0.0575 0.2500 0.8075 0.0000 Uiso
O6 O 0.9913 0.1211 0.9212 0.0000 Uiso
O7 O 0.2784 0.0711 0.9716 0.0000 Uiso
O8 O 0.2015 0.0485 0.0485 0.0000 Uiso
O9 O 0.3286 0.0574 0.9755 0.0000 Uiso
O10 O 0.2786 -0.0286 0.9714 0.0000 Uiso
O11 O 0.2189 0.9624 0.8684 0.0000 Uiso
O12 O -0.0106 0.2606 0.8877 0.0000 Uiso
O13 O 0.1936 0.9697 0.1301 0.0000 Uiso
O14 O 0.0931 0.9318 0.9318 0.0000 Uiso
O15 O 0.0885 0.0589 0.8520 0.0000 Uiso
O16 O 0.0910 0.1590 0.7899 0.0000 Uiso
O17 O 0.1894 0.8750 0.8750 0.0000 Uiso
O18 O 0.3168 0.0188 0.9805 0.0000 Uiso
O19 O 0.0390 1.0106 0.9277 0.0000 Uiso
O20 O 0.0377 0.9944 0.8681 0.0000 Uiso
O21 O 0.2788 0.0292 0.1779 0.0000 Uiso
O22 O 0.1337 0.0783 -0.0032 0.0000 Uiso
O23 O 0.2245 0.0613 0.1360 0.0000 Uiso
O24 O 0.3097 0.9727 0.2773 0.0000 Uiso
O25 O 0.1104 0.0821 0.8105 0.0000 Uiso
O26 O 0.2657 0.0557 0.1631 0.0000 Uiso
O27 O 0.0281 1.0281 0.9001 0.0000 Uiso
O28 O 0.3088 -0.0589 0.9860 0.0000 Uiso
O29 O -0.0855 0.3355 0.8355 0.0000 Uiso
O30 O 0.1285 0.1509 0.7670 0.0000 Uiso
O31 O 0.3082 0.0589 0.9418 0.0000 Uiso
O32 O 0.0818 0.1864 0.7379 0.0000 Uiso
O33 O 0.2330 -0.0002 0.1324 0.0000 Uiso
O34 O 0.0128 0.2727 0.7988 0.0000 Uiso
O35 O -0.0504 0.3004 0.8952 0.0000 Uiso
O36 O 0.3198 0.0291 0.9302 0.0000 Uiso
O37 O 0.0071 0.2429 0.8204 0.0000 Uiso
O38 O 0.0867 0.2015 0.7015 0.0000 Uiso
O39 O 0.0879 0.9679 0.9127 0.0000 Uiso
O40 O 0.3030 0.0339 0.1553 0.0000 Uiso
O41 O 0.1366 0.9281 0.7872 0.0000 Uiso
O42 O 0.3216 0.9284 0.2975 0.0000 Uiso
O43 O 0.0516 0.1984 0.6984 0.0000 Uiso
O44 O 0.0532 0.0532 0.8565 0.0000 Uiso
Cr2 Cr 0.1601 0.0899 0.0569 0.0000 Uiso
Cr3 Cr 0.1250 0.1250 -0.0931 0.0000 Uiso
Cr4 Cr 0.1094 0.1093 -0.1349 0.0000 Uiso
Cr5 Cr 0.1820 0.0680 -0.0366 0.0000 Uiso
Cr6 Cr 0.2274 0.0548 -0.0466 0.0000 Uiso
Cr7 Cr 0.1303 0.0136 -0.1600 0.0000 Uiso
O45 O 0.1704 0.0796 0.0796 0.0000 Uiso
O46 O 0.1250 0.1250 -0.1195 0.0000 Uiso
O47 O 0.1829 0.0957 0.0437 0.0000 Uiso
O48 O 0.1644 0.1153 0.0650 0.0000 Uiso
O49 O 0.1235 0.0983 -0.0885 0.0000 Uiso
O50 O 0.1001 0.1284 -0.1513 0.0000 Uiso
O51 O 0.1154 0.0904 -0.1161 0.0000 Uiso
O52 O 0.1991 0.0764 -0.0177 0.0000 Uiso
O53 O 0.1609 0.0614 -0.0519 0.0000 Uiso
O54 O 0.2280 0.0724 -0.0266 0.0000 Uiso
O55 O 0.2253 0.0462 -0.0698 0.0000 Uiso
O56 O 0.1739 0.0347 -0.0595 0.0000 Uiso
O57 O 0.1584 -0.0013 -0.1967 0.0000 Uiso
O58 O 0.0274 0.1698 -0.1797 0.0000 Uiso
O59 O 0.1312 0.0099 -0.1866 0.0000 Uiso
O60 O 0.0382 0.1407 -0.1708 0.0000 Uiso
O61 O 0.1316 0.0250 -0.1366 0.0000 Uiso
O62 O 0.1485 0.0068 -0.1184 0.0000 Uiso
O63 O 0.1464 0.1036 0.0384 0.0000 Uiso
O64 O 0.0912 0.0912 -0.1435 0.0000 Uiso
O65 O 0.1666 0.0834 -0.0207 0.0000 Uiso
O66 O 0.2514 0.0652 -0.0517 0.0000 Uiso
O67 O 0.1075 0.0243 -0.1655 0.0000 Uiso
C4 C 0.1476 0.1476 0.0774 0.0000 Uiso
C5 C 0.1616 0.1361 0.0884 0.0000 Uiso
C6 C 0.1719 0.1229 0.0781 0.0000 Uiso
C7 C 0.0925 0.1576 -0.1581 0.0000 Uiso
C8 C 0.0750 0.1511 -0.1683 0.0000 Uiso
C9 C 0.0616 0.1644 -0.1791 0.0000 Uiso
C10 C 0.0681 0.1819 -0.1857 0.0000 Uiso
C11 C 0.1050 0.1450 -0.1509 0.0000 Uiso
C12 C 0.0415 0.1577 -0.1779 0.0000 Uiso
C13 C 0.2148 0.0926 0.0352 0.0000 Uiso
C14 C 0.2092 0.0900 0.0161 0.0000 Uiso
C15 C 0.2225 0.0866 0.0026 0.0000 Uiso
C16 C 0.2421 0.0867 0.0079 0.0000 Uiso
C17 C 0.2162 0.0776 -0.0137 0.0000 Uiso
C18 C 0.2008 0.0948 0.0492 0.0000 Uiso
C19 C 0.1481 0.0469 -0.0774 0.0000 Uiso
C20 C 0.1449 0.0311 -0.0885 0.0000 Uiso
C21 C 0.1361 0.0344 -0.1066 0.0000 Uiso
C22 C 0.1298 0.0529 -0.1116 0.0000 Uiso
C23 C 0.1301 0.0675 -0.0978 0.0000 Uiso
C24 C 0.1362 0.0627 -0.0797 0.0000 Uiso
C25 C 0.1230 0.0863 -0.1013 0.0000 Uiso
C26 C 0.1392 0.0217 -0.1215 0.0000 Uiso
C27 C 0.1614 0.0476 -0.0627 0.0000 Uiso
C28 C 0.2196 0.0304 -0.1386 0.0000 Uiso
C29 C 0.2109 0.0153 -0.1288 0.0000 Uiso
C30 C 0.2093 0.0176 -0.1066 0.0000 Uiso
C31 C 0.2208 0.0292 -0.0965 0.0000 Uiso
C32 C 0.2175 0.0325 -0.0775 0.0000 Uiso
C33 C 0.1396 -0.0005 -0.1981 0.0000 Uiso
O47VD O 0.1543 0.0671 0.0437 0.0000 Uiso
O48VD O 0.1347 0.0856 0.0650 0.0000 Uiso
O49BB O 0.1265 0.1517 -0.0885 0.0000 Uiso
O49BD O 0.0983 0.1235 -0.0885 0.0000 Uiso
O49VD O 0.1517 0.1265 -0.0885 0.0000 Uiso
O50BD O 0.1284 0.1001 -0.1513 0.0000 Uiso
O52VD O 0.1736 0.0509 -0.0177 0.0000 Uiso
O53VD O 0.1886 0.0891 -0.0519 0.0000 Uiso
O62U O 0.1184 -0.0068 -0.1485 0.0000 Uiso
Cr2GB Cr 0.1931 0.0899 0.0899 0.0000 Uiso
Cr2V Cr 0.1601 0.0569 0.0899 0.0000 Uiso
Cr4BB Cr 0.1406 0.1407 -0.1349 0.0000 Uiso
Cr7U Cr 0.1600 -0.0136 -0.1303 0.0000 Uiso
C5NC C 0.1361 0.1616 0.0884 0.0000 Uiso
C4LB C 0.1726 0.1476 0.1024 0.0000 Uiso
O48ID O 0.1850 0.1153 0.0856 0.0000 Uiso
C8VD C 0.0989 0.1750 -0.1683 0.0000 Uiso
C9VD C 0.0856 0.1884 -0.1791 0.0000 Uiso
O50VD O 0.1216 0.1499 -0.1513 0.0000 Uiso
C14ID C 0.2339 0.0900 0.0408 0.0000 Uiso
C15ID C 0.2474 0.0866 0.0275 0.0000 Uiso
O47ID O 0.2063 0.0957 0.0671 0.0000 Uiso
C29VD C 0.2347 0.0391 -0.1288 0.0000 Uiso
C33U C 0.1981 0.0005 -0.1396 0.0000 Uiso
C30VD C 0.2324 0.0407 -0.1066 0.0000 Uiso
O55VD O 0.2038 0.0247 -0.0698 0.0000 Uiso
C29U C 0.1288 -0.0153 -0.2109 0.0000 Uiso
C18V C 0.1552 0.0492 0.0492 0.0000 Uiso
C6V C 0.1271 0.0781 0.0781 0.0000 Uiso
C25BB C 0.1270 0.1637 -0.1013 0.0000 Uiso
C25BD C 0.0863 0.1230 -0.1013 0.0000 Uiso
C25VD C 0.1637 0.1270 -0.1013 0.0000 Uiso
C11BB C 0.1450 0.1050 -0.1509 0.0000 Uiso
C17VD C 0.1724 0.0338 -0.0137 0.0000 Uiso
C27VD C 0.2024 0.0886 -0.0627 0.0000 Uiso
C26U C 0.1215 -0.0217 -0.1392 0.0000 Uiso
O47GB O 0.2063 0.0671 0.0957 0.0000 Uiso
O48GB O 0.1850 0.0856 0.1153 0.0000 Uiso
O63GB O 0.2116 0.1036 0.1036 0.0000 Uiso
O47V O 0.1543 0.0437 0.0671 0.0000 Uiso
O47ED O 0.1829 0.0437 0.0957 0.0000 Uiso
O48V O 0.1347 0.0650 0.0856 0.0000 Uiso
O48ED O 0.1644 0.0650 0.1153 0.0000 Uiso
O63V O 0.1464 0.0384 0.1036 0.0000 Uiso
O50BB O 0.1499 0.1216 -0.1513 0.0000 Uiso
O64BB O 0.1588 0.1588 -0.1435 0.0000 Uiso
O59U O 0.1866 -0.0099 -0.1312 0.0000 Uiso
O61U O 0.1366 -0.0250 -0.1316 0.0000 Uiso
O67U O 0.1655 -0.0243 -0.1075 0.0000 Uiso
C4NC C 0.1476 0.1726 0.1024 0.0000 Uiso
C6NC C 0.1229 0.1719 0.0781 0.0000 Uiso
C5LB C 0.1616 0.1616 0.1139 0.0000 Uiso
C12VD C 0.0923 0.2085 -0.1779 0.0000 Uiso
C17ID C 0.2637 0.0776 0.0338 0.0000 Uiso
C33OD C 0.2495 0.0519 -0.1396 0.0000 Uiso
O57U O 0.1967 0.0013 -0.1584 0.0000 Uiso
Cr6VD Cr 0.1952 0.0226 -0.0466 0.0000 Uiso
C28U C 0.1386 -0.0304 -0.2196 0.0000 Uiso
C30U C 0.1066 -0.0176 -0.2093 0.0000 Uiso
C13V C 0.1574 0.0352 0.0352 0.0000 Uiso
C5V C 0.1139 0.0884 0.0884 0.0000 Uiso
O51BB O 0.1346 0.1596 -0.1161 0.0000 Uiso
C23BB C 0.1199 0.1825 -0.0978 0.0000 Uiso
O51BD O 0.0904 0.1154 -0.1161 0.0000 Uiso
C23BD C 0.0675 0.1301 -0.0978 0.0000 Uiso
O51VD O 0.1596 0.1346 -0.1161 0.0000 Uiso
C23VD C 0.1825 0.1199 -0.0978 0.0000 Uiso
C7BB C 0.1575 0.0924 -0.1581 0.0000 Uiso
O54VD O 0.1776 0.0220 -0.0266 0.0000 Uiso
C15VD C 0.1634 0.0275 0.0026 0.0000 Uiso
O56VD O 0.2153 0.0761 -0.0595 0.0000 Uiso
C19VD C 0.2031 0.1019 -0.0774 0.0000 Uiso
C21U C 0.1066 -0.0344 -0.1361 0.0000 Uiso
C18GB C 0.2008 0.0492 0.0948 0.0000 Uiso
C6GB C 0.1719 0.0781 0.1229 0.0000 Uiso
O48NC O 0.1153 0.1850 0.0856 0.0000 Uiso
O48BD O 0.1153 0.1644 0.0650 0.0000 Uiso
C6LB C 0.1719 0.1719 0.1271 0.0000 Uiso
O58VD O 0.0802 0.2226 -0.1797 0.0000 Uiso
O60VD O 0.1093 0.2118 -0.1708 0.0000 Uiso
O52ID O 0.2677 0.0764 0.0509 0.0000 Uiso
O54ID O 0.2766 0.0724 0.0220 0.0000 Uiso
O57OD O 0.2487 0.0533 -0.1584 0.0000 Uiso
O59OD O 0.2599 0.0634 -0.1312 0.0000 Uiso
O66VD O 0.1848 -0.0014 -0.0517 0.0000 Uiso
C29DD C 0.1288 -0.0391 -0.2347 0.0000 Uiso
C31U C 0.0965 -0.0292 -0.2208 0.0000 Uiso
C14V C 0.1600 0.0161 0.0408 0.0000 Uiso
C14VD C 0.1600 0.0408 0.0161 0.0000 Uiso
C4V C 0.1024 0.0774 0.1024 0.0000 Uiso
C4BB C 0.1024 0.1024 0.0774 0.0000 Uiso
C22BB C 0.1202 0.1971 -0.1116 0.0000 Uiso
C24BB C 0.1138 0.1873 -0.0797 0.0000 Uiso
C22BD C 0.0529 0.1298 -0.1116 0.0000 Uiso
C24BD C 0.0627 0.1362 -0.0797 0.0000 Uiso
C22VD C 0.1971 0.1202 -0.1116 0.0000 Uiso
C24VD C 0.1873 0.1138 -0.0797 0.0000 Uiso
C8BB C 0.1750 0.0989 -0.1683 0.0000 Uiso
C8BD C 0.1511 0.0750 -0.1683 0.0000 Uiso
C16V C 0.1633 0.0079 0.0079 0.0000 Uiso
C20VD C 0.2189 0.1051 -0.0885 0.0000 Uiso
C20U C 0.0885 -0.0311 -0.1449 0.0000 Uiso
C22U C 0.1116 -0.0529 -0.1298 0.0000 Uiso
C13GB C 0.2148 0.0352 0.0926 0.0000 Uiso
C5GB C 0.1616 0.0884 0.1361 0.0000 Uiso
Cr2NC Cr 0.0899 0.1931 0.0899 0.0000 Uiso
Cr2BB Cr 0.0899 0.1601 0.0569 0.0000 Uiso
O48LB O 0.1850 0.1644 0.1347 0.0000 Uiso
O48WD O 0.1644 0.1850 0.1347 0.0000 Uiso
Cr5GB Cr 0.2866 0.0680 0.0680 0.0000 Uiso
Cr6ID Cr 0.2966 0.0548 0.0226 0.0000 Uiso
Cr7OD Cr 0.2636 0.0900 -0.1303 0.0000 Uiso
C30DD C 0.1066 -0.0407 -0.2324 0.0000 Uiso
C33XC C 0.1396 -0.0519 -0.2495 0.0000 Uiso
C32U C 0.0775 -0.0325 -0.2175 0.0000 Uiso
C15V C 0.1634 0.0026 0.0275 0.0000 Uiso
C5L C 0.0884 0.0884 0.1139 0.0000 Uiso
C5BB C 0.0884 0.1139 0.0884 0.0000 Uiso
C21BB C 0.1139 0.2156 -0.1066 0.0000 Uiso
C19BB C 0.1019 0.2031 -0.0774 0.0000 Uiso
C21BD C 0.0344 0.1361 -0.1066 0.0000 Uiso
C19BD C 0.0469 0.1481 -0.0774 0.0000 Uiso
C21VD C 0.2156 0.1139 -0.1066 0.0000 Uiso
C9BB C 0.1884 0.0856 -0.1791 0.0000 Uiso
C9BD C 0.1644 0.0616 -0.1791 0.0000 Uiso
C19U C 0.0774 -0.0469 -0.1481 0.0000 Uiso
C23U C 0.0978 -0.0675 -0.1301 0.0000 Uiso
C14GB C 0.2339 0.0408 0.0900 0.0000 Uiso
C14ED C 0.2092 0.0161 0.0900 0.0000 Uiso
C4P C 0.1476 0.0774 0.1476 0.0000 Uiso
C4GB C 0.1726 0.1024 0.1476 0.0000 Uiso
O45C O 0.0796 0.1704 0.0796 0.0000 Uiso
O47NC O 0.0957 0.2063 0.0671 0.0000 Uiso
O47FE O 0.0671 0.2063 0.0957 0.0000 Uiso
O48FE O 0.0856 0.1850 0.1153 0.0000 Uiso
O63NC O 0.1036 0.2116 0.1036 0.0000 Uiso
O47BB O 0.0671 0.1543 0.0437 0.0000 Uiso
O47BD O 0.0957 0.1829 0.0437 0.0000 Uiso
O48BB O 0.0856 0.1347 0.0650 0.0000 Uiso
O63BB O 0.1036 0.1464 0.0384 0.0000 Uiso
Cr2LB Cr 0.1931 0.1601 0.1601 0.0000 Uiso
Cr2QC Cr 0.1601 0.1931 0.1601 0.0000 Uiso
O52GB O 0.2677 0.0509 0.0764 0.0000 Uiso
O53GB O 0.3019 0.0891 0.0614 0.0000 Uiso
O53ID O 0.3019 0.0614 0.0891 0.0000 Uiso
O65GB O 0.2707 0.0834 0.0834 0.0000 Uiso
O55ID O 0.3198 0.0462 0.0247 0.0000 Uiso
O66ID O 0.3017 0.0652 -0.0014 0.0000 Uiso
O61OD O 0.2750 0.1134 -0.1316 0.0000 Uiso
O62VD O 0.2432 0.1015 -0.1184 0.0000 Uiso
O67OD O 0.2743 0.0845 -0.1075 0.0000 Uiso
O57XC O 0.1584 -0.0533 -0.2487 0.0000 Uiso
O59XC O 0.1312 -0.0634 -0.2599 0.0000 Uiso
O55U O 0.0698 -0.0462 -0.2253 0.0000 Uiso
O55DD O 0.0698 -0.0247 -0.2038 0.0000 Uiso
Cr1 Cr 0.0773 0.2500 0.8273 0.0000 Uiso
O1 O 0.0965 0.2500 0.8465 0.0000 Uiso
O68? O 0.0374 1.0016 0.8654 0.0000 Uiso
O69? O 0.0614 0.2889 0.7966 0.0000 Uiso
O70? O 0.1174 0.1174 -0.0314 0.0000 Uiso
O71? O 0.0139 0.2572 0.7572 0.0000 Uiso
O72? O 0.2182 0.0871 0.1554 0.0000 Uiso
O73? O 0.2385 0.1088 0.1336 0.0000 Uiso
loop_
_geom_bond_atom_site_label_1
_geom_bond_atom_site_label_2
_geom_bond_site_symmetry_1
_geom_bond_site_symmetry_2
Cr1 O1 1_555 1_555
O3 C3 1_555 1_555
C1 C2 1_555 1_555
C2 C1GB 1_555 1_555
C3 C1 1_555 1_555
Cr2 O45 1_555 1_555
Cr3 O46 1_555 1_555
Cr4 O46 1_555 1_555
Cr5 O52 1_555 1_555
Cr6 O54 1_555 1_555
Cr7 O59 1_555 1_555
O45 Cr2GB 1_555 1_555
O46 Cr4BB 1_555 1_555
O47 Cr2 1_555 1_555
O48 Cr2 1_555 1_555
O49 Cr3 1_555 1_555
O50 Cr4 1_555 1_555
O51 C25 1_555 1_555
O52 C17 1_555 1_555
O53 Cr5 1_555 1_555
O54 C17 1_555 1_555
O55 Cr6 1_555 1_555
O56 C27 1_555 1_555
O57 C33 1_555 1_555
O58 C12 1_555 1_555
O59 C33 1_555 1_555
O60 C12 1_555 1_555
O61 Cr7 1_555 1_555
O62 C26 1_555 1_555
O63 Cr2 1_555 1_555
O64 Cr4 1_555 1_555
O65 Cr5 1_555 1_555
O66 Cr6 1_555 1_555
O67 Cr7 1_555 1_555
C4 C5 1_555 1_555
C5 C6 1_555 1_555
C6 O48 1_555 1_555
C7 C8 1_555 1_555
C8 C9 1_555 1_555
C9 C10 1_555 1_555
C10 C9VD 1_555 1_555
C11 O50 1_555 1_555
C12 C9 1_555 1_555
C13 C14 1_555 1_555
C14 C15 1_555 1_555
C15 C16 1_555 1_555
C16 C15ID 1_555 1_555
C17 C15 1_555 1_555
C18 O47 1_555 1_555
C19 C20 1_555 1_555
C20 C21 1_555 1_555
C21 C22 1_555 1_555
C22 C23 1_555 1_555
C23 C24 1_555 1_555
C24 C19 1_555 1_555
C25 O49 1_555 1_555
C26 O61 1_555 1_555
C27 O53 1_555 1_555
C28 C29 1_555 1_555
C29 C30 1_555 1_555
C30 C31 1_555 1_555
C31 C32 1_555 1_555
C32 O55 1_555 1_555
C33 C29U 1_555 1_555
C2V C1 1_555 1_555
C1GB C2GB 1_555 1_555
O3ID C3 1_555 1_555
C1V C2V 1_555 1_555
C2GB C1V 1_555 1_555
C3GB C1GB 1_555 1_555
C3V C1V 1_555 1_555
O3GB C3GB 1_555 1_555
O3ED C3GB 1_555 1_555
O3V C3V 1_555 1_555
O3VD C3V 1_555 1_555
O47VD Cr2 1_555 1_555
O48VD Cr2 1_555 1_555
O49BB Cr3 1_555 1_555
O49BD Cr3 1_555 1_555
O49VD Cr3 1_555 1_555
O50BD Cr4 1_555 1_555
O52VD Cr5 1_555 1_555
O53VD Cr5 1_555 1_555
O62U Cr7 1_555 1_555
Cr2GB O48ID 1_555 1_555
Cr2V O45 1_555 1_555
Cr4BB O50VD 1_555 1_555
Cr7U O62 1_555 1_555
C5NC C4 1_555 1_555
C4LB C5 1_555 1_555
O48ID C6 1_555 1_555
C8VD C7 1_555 1_555
C9VD C8VD 1_555 1_555
O50VD C11 1_555 1_555
C14ID C13 1_555 1_555
C15ID C14ID 1_555 1_555
O47ID C18 1_555 1_555
C29VD C28 1_555 1_555
C33U C29 1_555 1_555
C30VD C31 1_555 1_555
O55VD C32 1_555 1_555
C29U C28U 1_555 1_555
C18V O47VD 1_555 1_555
C6V O48VD 1_555 1_555
C25BB O49BB 1_555 1_555
C25BD O49BD 1_555 1_555
C25VD O49VD 1_555 1_555
C11BB O50BD 1_555 1_555
C17VD O52VD 1_555 1_555
C27VD O53VD 1_555 1_555
C26U O62U 1_555 1_555
O47GB Cr2GB 1_555 1_555
O48GB Cr2GB 1_555 1_555
O63GB Cr2GB 1_555 1_555
O47V Cr2V 1_555 1_555
O47ED Cr2V 1_555 1_555
O48V Cr2V 1_555 1_555
O48ED Cr2V 1_555 1_555
O63V Cr2V 1_555 1_555
O50BB Cr4BB 1_555 1_555
O64BB Cr4BB 1_555 1_555
O59U Cr7U 1_555 1_555
O61U Cr7U 1_555 1_555
O67U Cr7U 1_555 1_555
C4NC C5NC 1_555 1_555
C6NC C5NC 1_555 1_555
C5LB C4LB 1_555 1_555
C12VD C9VD 1_555 1_555
C17ID C15ID 1_555 1_555
C33OD C29VD 1_555 1_555
O57U C33U 1_555 1_555
Cr6VD O55VD 1_555 1_555
C28U C29DD 1_555 1_555
C30U C29U 1_555 1_555
C13V C18V 1_555 1_555
C5V C6V 1_555 1_555
O51BB C25BB 1_555 1_555
C23BB C25BB 1_555 1_555
O51BD C25BD 1_555 1_555
C23BD C25BD 1_555 1_555
O51VD C25VD 1_555 1_555
C23VD C25VD 1_555 1_555
C7BB C11BB 1_555 1_555
O54VD C17VD 1_555 1_555
C15VD C17VD 1_555 1_555
O56VD C27VD 1_555 1_555
C19VD C27VD 1_555 1_555
C21U C26U 1_555 1_555
C18GB O47GB 1_555 1_555
C6GB O48GB 1_555 1_555
O48NC C6NC 1_555 1_555
O48BD C6NC 1_555 1_555
C6LB C5LB 1_555 1_555
O58VD C12VD 1_555 1_555
O60VD C12VD 1_555 1_555
O52ID C17ID 1_555 1_555
O54ID C17ID 1_555 1_555
O57OD C33OD 1_555 1_555
O59OD C33OD 1_555 1_555
O66VD Cr6VD 1_555 1_555
C29DD C30DD 1_555 1_555
C31U C30U 1_555 1_555
C14V C13V 1_555 1_555
C14VD C13V 1_555 1_555
C4V C5V 1_555 1_555
C4BB C5V 1_555 1_555
C22BB C23BB 1_555 1_555
C24BB C23BB 1_555 1_555
C22BD C23BD 1_555 1_555
C24BD C23BD 1_555 1_555
C22VD C23VD 1_555 1_555
C24VD C23VD 1_555 1_555
C8BB C7BB 1_555 1_555
C8BD C7BB 1_555 1_555
C16V C15VD 1_555 1_555
C20VD C19VD 1_555 1_555
C20U C21U 1_555 1_555
C22U C21U 1_555 1_555
C13GB C18GB 1_555 1_555
C5GB C6GB 1_555 1_555
Cr2NC O48NC 1_555 1_555
Cr2BB O48BD 1_555 1_555
O48LB C6LB 1_555 1_555
O48WD C6LB 1_555 1_555
Cr5GB O52ID 1_555 1_555
Cr6ID O54ID 1_555 1_555
Cr7OD O59OD 1_555 1_555
C30DD C31U 1_555 1_555
C33XC C29DD 1_555 1_555
C32U C31U 1_555 1_555
C15V C14V 1_555 1_555
C5L C4V 1_555 1_555
C5BB C4BB 1_555 1_555
C21BB C22BB 1_555 1_555
C19BB C24BB 1_555 1_555
C21BD C22BD 1_555 1_555
C19BD C24BD 1_555 1_555
C21VD C22VD 1_555 1_555
C9BB C8BB 1_555 1_555
C9BD C8BD 1_555 1_555
C19U C20U 1_555 1_555
C23U C22U 1_555 1_555
C14GB C13GB 1_555 1_555
C14ED C13GB 1_555 1_555
C4P C5GB 1_555 1_555
C4GB C5GB 1_555 1_555
O45C Cr2NC 1_555 1_555
O47NC Cr2NC 1_555 1_555
O47FE Cr2NC 1_555 1_555
O48FE Cr2NC 1_555 1_555
O63NC Cr2NC 1_555 1_555
O47BB Cr2BB 1_555 1_555
O47BD Cr2BB 1_555 1_555
O48BB Cr2BB 1_555 1_555
O63BB Cr2BB 1_555 1_555
Cr2LB O48LB 1_555 1_555
Cr2QC O48WD 1_555 1_555
O52GB Cr5GB 1_555 1_555
O53GB Cr5GB 1_555 1_555
O53ID Cr5GB 1_555 1_555
O65GB Cr5GB 1_555 1_555
O55ID Cr6ID 1_555 1_555
O66ID Cr6ID 1_555 1_555
O61OD Cr7OD 1_555 1_555
O62VD Cr7OD 1_555 1_555
O67OD Cr7OD 1_555 1_555
O57XC C33XC 1_555 1_555
O59XC C33XC 1_555 1_555
O55U C32U 1_555 1_555
O55DD C32U 1_555 1_555
C7 C11 1_555 1_555
C13 C18 1_555 1_555
C19 C27 1_555 1_555
C21 C26 1_555 1_555
C23 C25 1_555 1_555
Cr2GB O47ID 1_555 1_555
C29VD C30VD 1_555 1_555
C33U O59U 1_555 1_555
C18V O47V 1_555 1_555
C6V O48V 1_555 1_555
C11BB O50BB 1_555 1_555
C26U O61U 1_555 1_555
O47ED C18GB 1_555 1_555
O48ED C6GB 1_555 1_555
C4NC C5LB 1_555 1_555
Cr6VD O54VD 1_555 1_555
C15VD C14VD 1_555 1_555
C19VD C24VD 1_555 1_555
C16V C15V 1_555 1_555
C20VD C21VD 1_555 1_555
Cr2BB O45C 1_555 1_555

#END
