
#######################################################################
#
#                 Cambridge Crystallographic Data Centre
#                                CCDC 
#
#######################################################################
#
# If this CIF has been generated from an entry in the Cambridge 
# Structural Database, then it will include bibliographic, chemical, 
# crystal, experimental, refinement or atomic coordinate data resulting 
# from the CCDC's data processing and validation procedures.
#
#######################################################################

data_YEYDAJ
_chemical_name_common            PCN-58
_chemical_formula_moiety         '(C66 H44 N18 O16 Zr3)n'
_chemical_name_systematic        
catena-[tris(\m~4~-2',5'-bis(azidomethyl)-1,1':4',1''-terphenyl-4,4''-dicarboxylato)-bis(\m~3~-oxo)-bis(\m~3~-hydroxo)-tri-zirconium]
_symmetry_cell_setting           cubic
_symmetry_space_group_name_H-M   'F m -3 m'
_symmetry_Int_Tables_number      225
_space_group_name_Hall           '-F 4 2 3'
loop_
_symmetry_equiv_pos_site_id
_symmetry_equiv_pos_as_xyz
1 x,y,z
2 -y,x,z
3 -x,-y,z
4 y,-x,z
5 x,-z,y
6 x,-y,-z
7 x,z,-y
8 z,y,-x
9 -x,y,-z
10 -z,y,x
11 z,x,y
12 y,z,x
13 -y,-z,x
14 z,-x,-y
15 -y,z,-x
16 -z,-x,y
17 -z,x,-y
18 y,-z,-x
19 y,x,-z
20 -y,-x,-z
21 -x,z,y
22 -x,-z,-y
23 z,-y,x
24 -z,-y,-x
25 x,1/2+y,1/2+z
26 -y,1/2+x,1/2+z
27 -x,1/2-y,1/2+z
28 y,1/2-x,1/2+z
29 x,1/2-z,1/2+y
30 x,1/2-y,1/2-z
31 x,1/2+z,1/2-y
32 z,1/2+y,1/2-x
33 -x,1/2+y,1/2-z
34 -z,1/2+y,1/2+x
35 z,1/2+x,1/2+y
36 y,1/2+z,1/2+x
37 -y,1/2-z,1/2+x
38 z,1/2-x,1/2-y
39 -y,1/2+z,1/2-x
40 -z,1/2-x,1/2+y
41 -z,1/2+x,1/2-y
42 y,1/2-z,1/2-x
43 y,1/2+x,1/2-z
44 -y,1/2-x,1/2-z
45 -x,1/2+z,1/2+y
46 -x,1/2-z,1/2-y
47 z,1/2-y,1/2+x
48 -z,1/2-y,1/2-x
49 1/2+x,y,1/2+z
50 1/2-y,x,1/2+z
51 1/2-x,-y,1/2+z
52 1/2+y,-x,1/2+z
53 1/2+x,-z,1/2+y
54 1/2+x,-y,1/2-z
55 1/2+x,z,1/2-y
56 1/2+z,y,1/2-x
57 1/2-x,y,1/2-z
58 1/2-z,y,1/2+x
59 1/2+z,x,1/2+y
60 1/2+y,z,1/2+x
61 1/2-y,-z,1/2+x
62 1/2+z,-x,1/2-y
63 1/2-y,z,1/2-x
64 1/2-z,-x,1/2+y
65 1/2-z,x,1/2-y
66 1/2+y,-z,1/2-x
67 1/2+y,x,1/2-z
68 1/2-y,-x,1/2-z
69 1/2-x,z,1/2+y
70 1/2-x,-z,1/2-y
71 1/2+z,-y,1/2+x
72 1/2-z,-y,1/2-x
73 1/2+x,1/2+y,z
74 1/2-y,1/2+x,z
75 1/2-x,1/2-y,z
76 1/2+y,1/2-x,z
77 1/2+x,1/2-z,y
78 1/2+x,1/2-y,-z
79 1/2+x,1/2+z,-y
80 1/2+z,1/2+y,-x
81 1/2-x,1/2+y,-z
82 1/2-z,1/2+y,x
83 1/2+z,1/2+x,y
84 1/2+y,1/2+z,x
85 1/2-y,1/2-z,x
86 1/2+z,1/2-x,-y
87 1/2-y,1/2+z,-x
88 1/2-z,1/2-x,y
89 1/2-z,1/2+x,-y
90 1/2+y,1/2-z,-x
91 1/2+y,1/2+x,-z
92 1/2-y,1/2-x,-z
93 1/2-x,1/2+z,y
94 1/2-x,1/2-z,-y
95 1/2+z,1/2-y,x
96 1/2-z,1/2-y,-x
97 -x,-y,-z
98 y,-x,-z
99 x,y,-z
100 -y,x,-z
101 -x,z,-y
102 -x,y,z
103 -x,-z,y
104 -z,-y,x
105 x,-y,z
106 z,-y,-x
107 -z,-x,-y
108 -y,-z,-x
109 y,z,-x
110 -z,x,y
111 y,-z,x
112 z,x,-y
113 z,-x,y
114 -y,z,x
115 -y,-x,z
116 y,x,z
117 x,-z,-y
118 x,z,y
119 -z,y,-x
120 z,y,x
121 -x,1/2-y,1/2-z
122 y,1/2-x,1/2-z
123 x,1/2+y,1/2-z
124 -y,1/2+x,1/2-z
125 -x,1/2+z,1/2-y
126 -x,1/2+y,1/2+z
127 -x,1/2-z,1/2+y
128 -z,1/2-y,1/2+x
129 x,1/2-y,1/2+z
130 z,1/2-y,1/2-x
131 -z,1/2-x,1/2-y
132 -y,1/2-z,1/2-x
133 y,1/2+z,1/2-x
134 -z,1/2+x,1/2+y
135 y,1/2-z,1/2+x
136 z,1/2+x,1/2-y
137 z,1/2-x,1/2+y
138 -y,1/2+z,1/2+x
139 -y,1/2-x,1/2+z
140 y,1/2+x,1/2+z
141 x,1/2-z,1/2-y
142 x,1/2+z,1/2+y
143 -z,1/2+y,1/2-x
144 z,1/2+y,1/2+x
145 1/2-x,-y,1/2-z
146 1/2+y,-x,1/2-z
147 1/2+x,y,1/2-z
148 1/2-y,x,1/2-z
149 1/2-x,z,1/2-y
150 1/2-x,y,1/2+z
151 1/2-x,-z,1/2+y
152 1/2-z,-y,1/2+x
153 1/2+x,-y,1/2+z
154 1/2+z,-y,1/2-x
155 1/2-z,-x,1/2-y
156 1/2-y,-z,1/2-x
157 1/2+y,z,1/2-x
158 1/2-z,x,1/2+y
159 1/2+y,-z,1/2+x
160 1/2+z,x,1/2-y
161 1/2+z,-x,1/2+y
162 1/2-y,z,1/2+x
163 1/2-y,-x,1/2+z
164 1/2+y,x,1/2+z
165 1/2+x,-z,1/2-y
166 1/2+x,z,1/2+y
167 1/2-z,y,1/2-x
168 1/2+z,y,1/2+x
169 1/2-x,1/2-y,-z
170 1/2+y,1/2-x,-z
171 1/2+x,1/2+y,-z
172 1/2-y,1/2+x,-z
173 1/2-x,1/2+z,-y
174 1/2-x,1/2+y,z
175 1/2-x,1/2-z,y
176 1/2-z,1/2-y,x
177 1/2+x,1/2-y,z
178 1/2+z,1/2-y,-x
179 1/2-z,1/2-x,-y
180 1/2-y,1/2-z,-x
181 1/2+y,1/2+z,-x
182 1/2-z,1/2+x,y
183 1/2+y,1/2-z,x
184 1/2+z,1/2+x,-y
185 1/2+z,1/2-x,y
186 1/2-y,1/2+z,x
187 1/2-y,1/2-x,z
188 1/2+y,1/2+x,z
189 1/2+x,1/2-z,-y
190 1/2+x,1/2+z,y
191 1/2-z,1/2+y,-x
192 1/2+z,1/2+y,x
_cell_length_a                   32.6919(14)
_cell_length_b                   32.6919(14)
_cell_length_c                   32.6919(14)
_cell_angle_alpha                90
_cell_angle_beta                 90
_cell_angle_gamma                90
_cell_volume                     34939.8
_exptl_crystal_colour            'light orange'
_exptl_crystal_description       octahedron
_cell_formula_units_Z            8
loop_
_atom_site_label
_atom_site_type_symbol
_atom_site_fract_x
_atom_site_fract_y
_atom_site_fract_z
Zr1 Zr 0.424752(6) 0.5000 1.0000
O1 O 0.39153(3) 0.5000 0.94103(3)
O2 O 0.46333(4) 0.53667(4) 0.96333(4)
C1 C 0.40461(4) 0.5000 0.90461(4)
C2 C 0.37212(4) 0.5000 0.87212(4)
C3 C 0.38293(7) 0.5000 0.83181(5)
H1 H 0.4104 0.5000 0.8244
C4 C 0.35289(5) 0.5000 0.80213(6)
H2 H 0.3603 0.5000 0.7747
C5 C 0.31260(5) 0.5000 0.81260(5)
C6 C 0.27960(5) 0.5000 0.77960(5)
C7 C 0.26480(3) 0.53535(6) 0.76480(3)
C8 C 0.27859(11) 0.57857(11) 0.77821(10)
H3 H 0.3035 0.5753 0.7940
H4 H 0.2579 0.5890 0.7968
N1 N 0.28696(2) 0.61301(11) 0.74533(3)
N2 N 0.31697(2) 0.61037(8) 0.72260(3)
N3 N 0.34712(3) 0.60726(15) 0.70014(4)
O1DB O 0.10847(3) 0.5000 0.55897(3)
C1W C 0.09539(4) 0.5000 0.59539(4)
C2W C 0.12788(4) 0.5000 0.62788(4)
C3DB C 0.11707(7) 0.5000 0.66819(5)
H1DB H 0.0896 0.5000 0.6756
C4DB C 0.14711(5) 0.5000 0.69787(6)
H2DB H 0.1397 0.5000 0.7253
C5W C 0.18740(5) 0.5000 0.68740(5)
C6W C 0.22040(5) 0.5000 0.72040(5)
C7DB C 0.23520(3) 0.53535(6) 0.73520(3)
C8DB C 0.22141(11) 0.57857(11) 0.72179(10)
H3DB H 0.1965 0.5753 0.7060
H4DB H 0.2421 0.5890 0.7032
N1DB N 0.21304(2) 0.61301(11) 0.75467(3)
N2DB N 0.18303(2) 0.61037(8) 0.77740(3)
N3DB N 0.15288(3) 0.60726(15) 0.79986(4)
O1RB O 0.44103(3) 0.5000 0.89153(3)
C3RB C 0.33181(5) 0.5000 0.88293(7)
H1RB H 0.3244 0.5000 0.9104
C4RB C 0.30213(6) 0.5000 0.85289(5)
H2RB H 0.2747 0.5000 0.8603
C7RB C 0.26480(3) 0.46465(6) 0.76480(3)
C8RB C 0.27821(10) 0.42143(11) 0.77859(11)
H3RB H 0.2940 0.4247 0.8035
H4RB H 0.2968 0.4110 0.7579
N1RB N 0.24533(3) 0.38699(11) 0.78696(2)
N2RB N 0.22260(3) 0.38963(8) 0.81697(2)
N3RB N 0.20014(4) 0.39274(15) 0.84712(3)
H3ZC H 0.3035 0.4247 0.7940
H4ZC H 0.2579 0.4110 0.7968
N1ZC N 0.28696(2) 0.38699(11) 0.74533(3)
N2ZC N 0.31697(2) 0.38963(8) 0.72260(3)
N3ZC N 0.34712(3) 0.39274(15) 0.70014(4)
O1W O 0.05897(3) 0.5000 0.60847(3)
C3W C 0.16819(5) 0.5000 0.61707(7)
H1W H 0.1756 0.5000 0.5896
C4W C 0.19787(6) 0.5000 0.64711(5)
H2W H 0.2253 0.5000 0.6397
H3ND H 0.2060 0.5753 0.6965
H4ND H 0.2032 0.5890 0.7421
N1ND N 0.25467(3) 0.61301(11) 0.71304(2)
N2ND N 0.27740(3) 0.61037(8) 0.68303(2)
N3ND N 0.29986(4) 0.60726(15) 0.65288(3)
C7W C 0.23520(3) 0.46465(6) 0.73520(3)
C8NE C 0.22141(11) 0.42143(11) 0.72179(10)
H3NE H 0.1965 0.4247 0.7060
H4NE H 0.2421 0.4110 0.7032
N1NE N 0.21304(2) 0.38699(11) 0.75467(3)
N2NE N 0.18303(2) 0.38963(8) 0.77740(3)
N3NE N 0.15288(3) 0.39274(15) 0.79986(4)
H3KF H 0.2940 0.5753 0.8035
H4KF H 0.2968 0.5890 0.7579
N1KF N 0.24533(3) 0.61301(11) 0.78696(2)
N2KF N 0.22260(3) 0.61037(8) 0.81697(2)
N3KF N 0.20014(4) 0.60726(15) 0.84712(3)
H3W H 0.2060 0.4247 0.6965
H4W H 0.2032 0.4110 0.7421
N1W N 0.25467(3) 0.38699(11) 0.71304(2)
N2W N 0.27740(3) 0.38963(8) 0.68303(2)
N3W N 0.29986(4) 0.39274(15) 0.65288(3)
Zr1A Zr 0.5000 0.424752(6) 1.0000
O1A O 0.5000 0.39153(3) 0.94103(3)
O2A O 0.46333(4) 0.46333(4) 0.96333(4)
C1A C 0.5000 0.40461(4) 0.90461(4)
C2A C 0.5000 0.37212(4) 0.87212(4)
C3A C 0.5000 0.38293(7) 0.83181(5)
H1A H 0.5000 0.4104 0.8244
C4A C 0.5000 0.35289(5) 0.80213(6)
H2A H 0.5000 0.3603 0.7747
C5A C 0.5000 0.31260(5) 0.81260(5)
C6A C 0.5000 0.27960(5) 0.77960(5)
C7A C 0.46465(6) 0.26480(3) 0.76480(3)
C8A C 0.42143(11) 0.27859(11) 0.77821(10)
H3A H 0.4247 0.3035 0.7940
H4A H 0.4110 0.2579 0.7968
N1A N 0.38699(11) 0.28696(2) 0.74533(3)
N2A N 0.38963(8) 0.31697(2) 0.72260(3)
N3A N 0.39274(15) 0.34712(3) 0.70014(4)
O1QA O 0.5000 0.10847(3) 0.55897(3)
C1Q C 0.5000 0.09539(4) 0.59539(4)
C2Q C 0.5000 0.12788(4) 0.62788(4)
C3QA C 0.5000 0.11707(7) 0.66819(5)
H1QA H 0.5000 0.0896 0.6756
C4QA C 0.5000 0.14711(5) 0.69787(6)
H2QA H 0.5000 0.1397 0.7253
C5Q C 0.5000 0.18740(5) 0.68740(5)
C6Q C 0.5000 0.22040(5) 0.72040(5)
C7QA C 0.46465(6) 0.23520(3) 0.73520(3)
C8QA C 0.42143(11) 0.22141(11) 0.72179(10)
H3QA H 0.4247 0.1965 0.7060
H4QA H 0.4110 0.2421 0.7032
N1QA N 0.38699(11) 0.21304(2) 0.75467(3)
N2QA N 0.38963(8) 0.18303(2) 0.77740(3)
N3QA N 0.39274(15) 0.15288(3) 0.79986(4)
O1IA O 0.5000 0.44103(3) 0.89153(3)
C3IA C 0.5000 0.33181(5) 0.88293(7)
H1IA H 0.5000 0.3244 0.9104
C4IA C 0.5000 0.30213(6) 0.85289(5)
H2IA H 0.5000 0.2747 0.8603
C7IA C 0.53535(6) 0.26480(3) 0.76480(3)
C8IA C 0.57857(11) 0.27821(10) 0.77859(11)
H3IA H 0.5753 0.2940 0.8035
H4IA H 0.5890 0.2968 0.7579
N1IA N 0.61301(11) 0.24533(3) 0.78696(2)
N2IA N 0.61037(8) 0.22260(3) 0.81697(2)
N3IA N 0.60726(15) 0.20014(4) 0.84712(3)
H3KD H 0.5753 0.3035 0.7940
H4KD H 0.5890 0.2579 0.7968
N1KD N 0.61301(11) 0.28696(2) 0.74533(3)
N2KD N 0.61037(8) 0.31697(2) 0.72260(3)
N3KD N 0.60726(15) 0.34712(3) 0.70014(4)
O1Q O 0.5000 0.05897(3) 0.60847(3)
C3Q C 0.5000 0.16819(5) 0.61707(7)
H1Q H 0.5000 0.1756 0.5896
C4Q C 0.5000 0.19787(6) 0.64711(5)
H2Q H 0.5000 0.2253 0.6397
H3CD H 0.4247 0.2060 0.6965
H4CD H 0.4110 0.2032 0.7421
N1CD N 0.38699(11) 0.25467(3) 0.71304(2)
N2CD N 0.38963(8) 0.27740(3) 0.68303(2)
N3CD N 0.39274(15) 0.29986(4) 0.65288(3)
C7Q C 0.53535(6) 0.23520(3) 0.73520(3)
C8QD C 0.57857(11) 0.22141(11) 0.72179(10)
H3QD H 0.5753 0.1965 0.7060
H4QD H 0.5890 0.2421 0.7032
N1QD N 0.61301(11) 0.21304(2) 0.75467(3)
N2QD N 0.61037(8) 0.18303(2) 0.77740(3)
N3QD N 0.60726(15) 0.15288(3) 0.79986(4)
H3GE H 0.4247 0.2940 0.8035
H4GE H 0.4110 0.2968 0.7579
N1GE N 0.38699(11) 0.24533(3) 0.78696(2)
N2GE N 0.38963(8) 0.22260(3) 0.81697(2)
N3GE N 0.39274(15) 0.20014(4) 0.84712(3)
H3Q H 0.5753 0.2060 0.6965
H4Q H 0.5890 0.2032 0.7421
N1Q N 0.61301(11) 0.25467(3) 0.71304(2)
N2Q N 0.61037(8) 0.27740(3) 0.68303(2)
N3Q N 0.60726(15) 0.29986(4) 0.65288(3)
Zr1B Zr 0.575248(6) 0.5000 1.0000
O1B O 0.60847(3) 0.5000 0.94103(3)
O2B O 0.53667(4) 0.46333(4) 0.96333(4)
C1B C 0.59539(4) 0.5000 0.90461(4)
C2B C 0.62788(4) 0.5000 0.87212(4)
C3B C 0.61707(7) 0.5000 0.83181(5)
H1B H 0.5896 0.5000 0.8244
C4B C 0.64711(5) 0.5000 0.80213(6)
H2B H 0.6397 0.5000 0.7747
C5B C 0.68740(5) 0.5000 0.81260(5)
C6B C 0.72040(5) 0.5000 0.77960(5)
C7B C 0.73520(3) 0.46465(6) 0.76480(3)
C8B C 0.72141(11) 0.42143(11) 0.77821(10)
H3B H 0.6965 0.4247 0.7940
H4B H 0.7421 0.4110 0.7968
N1B N 0.71304(2) 0.38699(11) 0.74533(3)
N2B N 0.68303(2) 0.38963(8) 0.72260(3)
N3B N 0.65288(3) 0.39274(15) 0.70014(4)
O1AB O 0.89153(3) 0.5000 0.55897(3)
C1G C 0.90461(4) 0.5000 0.59539(4)
C2G C 0.87212(4) 0.5000 0.62788(4)
C3AB C 0.88293(7) 0.5000 0.66819(5)
H1AB H 0.9104 0.5000 0.6756
C4AB C 0.85289(5) 0.5000 0.69787(6)
H2AB H 0.8603 0.5000 0.7253
C5G C 0.81260(5) 0.5000 0.68740(5)
C6G C 0.77960(5) 0.5000 0.72040(5)
C7AB C 0.76480(3) 0.46465(6) 0.73520(3)
C8AB C 0.77859(11) 0.42143(11) 0.72179(10)
H3AB H 0.8035 0.4247 0.7060
H4AB H 0.7579 0.4110 0.7032
N1AB N 0.78696(2) 0.38699(11) 0.75467(3)
N2AB N 0.81697(2) 0.38963(8) 0.77740(3)
N3AB N 0.84712(3) 0.39274(15) 0.79986(4)
O1EB O 0.55897(3) 0.5000 0.89153(3)
C3EB C 0.66819(5) 0.5000 0.88293(7)
H1EB H 0.6756 0.5000 0.9104
C4EB C 0.69787(6) 0.5000 0.85289(5)
H2EB H 0.7253 0.5000 0.8603
C7EB C 0.73520(3) 0.53535(6) 0.76480(3)
C8EB C 0.72179(10) 0.57857(11) 0.77859(11)
H3EB H 0.7060 0.5753 0.8035
H4EB H 0.7032 0.5890 0.7579
N1EB N 0.75467(3) 0.61301(11) 0.78696(2)
N2EB N 0.77740(3) 0.61037(8) 0.81697(2)
N3EB N 0.79986(4) 0.60726(15) 0.84712(3)
H3WC H 0.6965 0.5753 0.7940
H4WC H 0.7421 0.5890 0.7968
N1WC N 0.71304(2) 0.61301(11) 0.74533(3)
N2WC N 0.68303(2) 0.61037(8) 0.72260(3)
N3WC N 0.65288(3) 0.60726(15) 0.70014(4)
O1G O 0.94103(3) 0.5000 0.60847(3)
C3G C 0.83181(5) 0.5000 0.61707(7)
H1G H 0.8244 0.5000 0.5896
C4G C 0.80213(6) 0.5000 0.64711(5)
H2G H 0.7747 0.5000 0.6397
H3AD H 0.7940 0.4247 0.6965
H4AD H 0.7968 0.4110 0.7421
N1AD N 0.74533(3) 0.38699(11) 0.71304(2)
N2AD N 0.72260(3) 0.38963(8) 0.68303(2)
N3AD N 0.70014(4) 0.39274(15) 0.65288(3)
C7G C 0.76480(3) 0.53535(6) 0.73520(3)
C8PE C 0.77859(11) 0.57857(11) 0.72179(10)
H3PE H 0.8035 0.5753 0.7060
H4PE H 0.7579 0.5890 0.7032
N1PE N 0.78696(2) 0.61301(11) 0.75467(3)
N2PE N 0.81697(2) 0.61037(8) 0.77740(3)
N3PE N 0.84712(3) 0.60726(15) 0.79986(4)
H3UE H 0.7060 0.4247 0.8035
H4UE H 0.7032 0.4110 0.7579
N1UE N 0.75467(3) 0.38699(11) 0.78696(2)
N2UE N 0.77740(3) 0.38963(8) 0.81697(2)
N3UE N 0.79986(4) 0.39274(15) 0.84712(3)
H3G H 0.7940 0.5753 0.6965
H4G H 0.7968 0.5890 0.7421
N1G N 0.74533(3) 0.61301(11) 0.71304(2)
N2G N 0.72260(3) 0.61037(8) 0.68303(2)
N3G N 0.70014(4) 0.60726(15) 0.65288(3)
O2C O 0.53667(4) 0.53667(4) 0.96333(4)
Zr1C Zr 0.5000 0.575248(6) 1.0000
Zr1G Zr 0.0000 0.5000 0.575248(6)
Zr1G_2 Zr 1.0000 0.5000 0.575248(6)
Zr1N Zr 0.5000 0.0000 0.575248(6)
Zr1AA Zr 0.5000 0.075248(6) 0.5000
Zr1IA Zr 0.5000 0.5000 0.924752(6)
Zr1VA Zr 0.924752(6) 0.5000 0.5000
Zr1XA Zr 0.075248(6) 0.5000 0.5000
O1E O 0.39153(3) 0.5000 1.05897(3)
O1H O 0.60847(3) 0.5000 1.05897(3)
O1R O 0.5000 0.39153(3) 1.05897(3)
O1BA O 0.39153(3) 0.55897(3) 1.0000
O1DA O 0.39153(3) 0.44103(3) 1.0000
O1RA O 0.60847(3) 0.44103(3) 1.0000
O1SA O 0.60847(3) 0.55897(3) 1.0000
O1FB O 0.44103(3) 0.39153(3) 1.0000
O1LB O 0.55897(3) 0.39153(3) 1.0000
O2E O 0.46333(4) 0.46333(4) 1.03667(4)
O2H O 0.53667(4) 0.53667(4) 1.03667(4)
O2R O 0.53667(4) 0.46333(4) 1.03667(4)
O2S O 0.46333(4) 0.53667(4) 1.03667(4)
loop_
_geom_bond_atom_site_label_1
_geom_bond_atom_site_label_2
_geom_bond_site_symmetry_1
_geom_bond_site_symmetry_2
Zr1 O1 1_555 1_555
O1 C1 1_555 1_555
O2 Zr1 1_555 1_555
C1 C2 1_555 1_555
C2 C3 1_555 1_555
C3 H1 1_555 1_555
C4 C3 1_555 1_555
H2 C4 1_555 1_555
C5 C4 1_555 1_555
C6 C5 1_555 1_555
C7 C6 1_555 1_555
C8 C7 1_555 1_555
H3 C8 1_555 1_555
H4 C8 1_555 1_555
N1 C8 1_555 1_555
N2 N1 1_555 1_555
N3 N2 1_555 1_555
O1DB C1W 1_555 1_555
C1W C2W 1_555 1_555
C2W C3DB 1_555 1_555
C3DB H1DB 1_555 1_555
C4DB C3DB 1_555 1_555
H2DB C4DB 1_555 1_555
C5W C4DB 1_555 1_555
C6W C5W 1_555 1_555
C7DB C7 1_555 1_555
C8DB C7DB 1_555 1_555
H3DB C8DB 1_555 1_555
H4DB C8DB 1_555 1_555
N1DB C8DB 1_555 1_555
N2DB N1DB 1_555 1_555
N3DB N2DB 1_555 1_555
O1RB C1 1_555 1_555
C3RB C2 1_555 1_555
H1RB C3RB 1_555 1_555
C4RB C5 1_555 1_555
H2RB C4RB 1_555 1_555
C7RB C6 1_555 1_555
C8RB C7RB 1_555 1_555
H3RB C8RB 1_555 1_555
H4RB C8RB 1_555 1_555
N1RB C8RB 1_555 1_555
N2RB N1RB 1_555 1_555
N3RB N2RB 1_555 1_555
H3ZC C8RB 1_555 1_555
H4ZC C8RB 1_555 1_555
N1ZC C8RB 1_555 1_555
N2ZC N1ZC 1_555 1_555
N3ZC N2ZC 1_555 1_555
O1W C1W 1_555 1_555
C3W C2W 1_555 1_555
H1W C3W 1_555 1_555
C4W C5W 1_555 1_555
H2W C4W 1_555 1_555
H3ND C8DB 1_555 1_555
H4ND C8DB 1_555 1_555
N1ND N1 1_555 1_555
N2ND N1ND 1_555 1_555
N3ND N2ND 1_555 1_555
C7W C6W 1_555 1_555
C8NE C7W 1_555 1_555
H3NE C8NE 1_555 1_555
H4NE C8NE 1_555 1_555
N1NE N1RB 1_555 1_555
N2NE N1NE 1_555 1_555
N3NE N2NE 1_555 1_555
H3KF C8 1_555 1_555
H4KF C8 1_555 1_555
N1KF C8 1_555 1_555
N2KF N1KF 1_555 1_555
N3KF N2KF 1_555 1_555
H3W C8NE 1_555 1_555
H4W C8NE 1_555 1_555
N1W N1ZC 1_555 1_555
N2W N1W 1_555 1_555
N3W N2W 1_555 1_555
Zr1A O1A 1_555 1_555
O1A C1A 1_555 1_555
O2A Zr1 1_555 1_555
C1A C2A 1_555 1_555
C2A C3A 1_555 1_555
C3A H1A 1_555 1_555
C4A C3A 1_555 1_555
H2A C4A 1_555 1_555
C5A C4A 1_555 1_555
C6A C5A 1_555 1_555
C7A C6A 1_555 1_555
C8A C7A 1_555 1_555
H3A C8A 1_555 1_555
H4A C8A 1_555 1_555
N1A C8A 1_555 1_555
N2A N1A 1_555 1_555
N3A N2A 1_555 1_555
O1QA C1Q 1_555 1_555
C1Q C2Q 1_555 1_555
C2Q C3QA 1_555 1_555
C3QA H1QA 1_555 1_555
C4QA C3QA 1_555 1_555
H2QA C4QA 1_555 1_555
C5Q C4QA 1_555 1_555
C6Q C5Q 1_555 1_555
C7QA C7A 1_555 1_555
C8QA C7QA 1_555 1_555
H3QA C8QA 1_555 1_555
H4QA C8QA 1_555 1_555
N1QA C8QA 1_555 1_555
N2QA N1QA 1_555 1_555
N3QA N2QA 1_555 1_555
O1IA C1A 1_555 1_555
C3IA C2A 1_555 1_555
H1IA C3IA 1_555 1_555
C4IA C5A 1_555 1_555
H2IA C4IA 1_555 1_555
C7IA C6A 1_555 1_555
C8IA C7IA 1_555 1_555
H3IA C8IA 1_555 1_555
H4IA C8IA 1_555 1_555
N1IA C8IA 1_555 1_555
N2IA N1IA 1_555 1_555
N3IA N2IA 1_555 1_555
H3KD C8IA 1_555 1_555
H4KD C8IA 1_555 1_555
N1KD C8IA 1_555 1_555
N2KD N1KD 1_555 1_555
N3KD N2KD 1_555 1_555
O1Q C1Q 1_555 1_555
C3Q C2Q 1_555 1_555
H1Q C3Q 1_555 1_555
C4Q C5Q 1_555 1_555
H2Q C4Q 1_555 1_555
H3CD C8QA 1_555 1_555
H4CD C8QA 1_555 1_555
N1CD N1A 1_555 1_555
N2CD N1CD 1_555 1_555
N3CD N2CD 1_555 1_555
C7Q C6Q 1_555 1_555
C8QD C7Q 1_555 1_555
H3QD C8QD 1_555 1_555
H4QD C8QD 1_555 1_555
N1QD N1IA 1_555 1_555
N2QD N1QD 1_555 1_555
N3QD N2QD 1_555 1_555
H3GE C8A 1_555 1_555
H4GE C8A 1_555 1_555
N1GE C8A 1_555 1_555
N2GE N1GE 1_555 1_555
N3GE N2GE 1_555 1_555
H3Q C8QD 1_555 1_555
H4Q C8QD 1_555 1_555
N1Q N1KD 1_555 1_555
N2Q N1Q 1_555 1_555
N3Q N2Q 1_555 1_555
Zr1B O1B 1_555 1_555
O1B C1B 1_555 1_555
O2B Zr1A 1_555 1_555
C1B C2B 1_555 1_555
C2B C3B 1_555 1_555
C3B H1B 1_555 1_555
C4B C3B 1_555 1_555
H2B C4B 1_555 1_555
C5B C4B 1_555 1_555
C6B C5B 1_555 1_555
C7B C6B 1_555 1_555
C8B C7B 1_555 1_555
H3B C8B 1_555 1_555
H4B C8B 1_555 1_555
N1B C8B 1_555 1_555
N2B N1B 1_555 1_555
N3B N2B 1_555 1_555
O1AB C1G 1_555 1_555
C1G C2G 1_555 1_555
C2G C3AB 1_555 1_555
C3AB H1AB 1_555 1_555
C4AB C3AB 1_555 1_555
H2AB C4AB 1_555 1_555
C5G C4AB 1_555 1_555
C6G C5G 1_555 1_555
C7AB C7B 1_555 1_555
C8AB C7AB 1_555 1_555
H3AB C8AB 1_555 1_555
H4AB C8AB 1_555 1_555
N1AB C8AB 1_555 1_555
N2AB N1AB 1_555 1_555
N3AB N2AB 1_555 1_555
O1EB C1B 1_555 1_555
C3EB C2B 1_555 1_555
H1EB C3EB 1_555 1_555
C4EB C5B 1_555 1_555
H2EB C4EB 1_555 1_555
C7EB C6B 1_555 1_555
C8EB C7EB 1_555 1_555
H3EB C8EB 1_555 1_555
H4EB C8EB 1_555 1_555
N1EB C8EB 1_555 1_555
N2EB N1EB 1_555 1_555
N3EB N2EB 1_555 1_555
H3WC C8EB 1_555 1_555
H4WC C8EB 1_555 1_555
N1WC C8EB 1_555 1_555
N2WC N1WC 1_555 1_555
N3WC N2WC 1_555 1_555
O1G C1G 1_555 1_555
C3G C2G 1_555 1_555
H1G C3G 1_555 1_555
C4G C5G 1_555 1_555
H2G C4G 1_555 1_555
H3AD C8AB 1_555 1_555
H4AD C8AB 1_555 1_555
N1AD N1B 1_555 1_555
N2AD N1AD 1_555 1_555
N3AD N2AD 1_555 1_555
C7G C6G 1_555 1_555
C8PE C7G 1_555 1_555
H3PE C8PE 1_555 1_555
H4PE C8PE 1_555 1_555
N1PE N1EB 1_555 1_555
N2PE N1PE 1_555 1_555
N3PE N2PE 1_555 1_555
H3UE C8B 1_555 1_555
H4UE C8B 1_555 1_555
N1UE C8B 1_555 1_555
N2UE N1UE 1_555 1_555
N3UE N2UE 1_555 1_555
H3G C8PE 1_555 1_555
H4G C8PE 1_555 1_555
N1G N1WC 1_555 1_555
N2G N1G 1_555 1_555
N3G N2G 1_555 1_555
O2C Zr1B 1_555 1_555
Zr1C O2 1_555 1_555
Zr1G O1W 1_555 1_555
Zr1G_2 O1G 1_555 1_555
Zr1N O1Q 1_555 1_555
Zr1AA O1QA 1_555 1_555
Zr1IA O2 1_555 1_555
Zr1VA O1AB 1_555 1_555
Zr1XA O1DB 1_555 1_555
O1E Zr1 1_555 1_555
O1H Zr1B 1_555 1_555
O1R Zr1A 1_555 1_555
O1BA Zr1 1_555 1_555
O1DA Zr1 1_555 1_555
O1RA Zr1B 1_555 1_555
O1SA Zr1B 1_555 1_555
O1FB Zr1A 1_555 1_555
O1LB Zr1A 1_555 1_555
O2E Zr1 1_555 1_555
O2H Zr1B 1_555 1_555
O2R Zr1A 1_555 1_555
O2S Zr1 1_555 1_555
H4 N1KF 1_555 1_555
N1 H4KF 1_555 1_555
C6W C7DB 1_555 1_555
C8DB N1ND 1_555 1_555
H4DB N1ND 1_555 1_555
N1DB H4ND 1_555 1_555
N1DB N1KF 1_555 1_555
O1RB Zr1IA 1_555 1_555
C3RB C4RB 1_555 1_555
C7RB C7W 1_555 1_555
H4RB N1ZC 1_555 1_555
N1RB H4ZC 1_555 1_555
C3W C4W 1_555 1_555
C8NE N1NE 1_555 1_555
C8NE N1W 1_555 1_555
H4NE N1W 1_555 1_555
N1NE H4W 1_555 1_555
Zr1A O2A 1_555 1_555
Zr1A O2E 1_555 1_555
O2A Zr1IA 1_555 1_555
H4A N1GE 1_555 1_555
N1A H4GE 1_555 1_555
C6Q C7QA 1_555 1_555
C8QA N1CD 1_555 1_555
H4QA N1CD 1_555 1_555
N1QA H4CD 1_555 1_555
N1QA N1GE 1_555 1_555
O1IA Zr1IA 1_555 1_555
C3IA C4IA 1_555 1_555
C7IA C7Q 1_555 1_555
H4IA N1KD 1_555 1_555
N1IA H4KD 1_555 1_555
C3Q C4Q 1_555 1_555
C8QD N1QD 1_555 1_555
C8QD N1Q 1_555 1_555
H4QD N1Q 1_555 1_555
N1QD H4Q 1_555 1_555
Zr1B O2B 1_555 1_555
Zr1B O2R 1_555 1_555
O2B Zr1IA 1_555 1_555
H4B N1UE 1_555 1_555
N1B H4UE 1_555 1_555
C6G C7AB 1_555 1_555
C8AB N1AD 1_555 1_555
H4AB N1AD 1_555 1_555
N1AB H4AD 1_555 1_555
N1AB N1UE 1_555 1_555
O1EB Zr1IA 1_555 1_555
C3EB C4EB 1_555 1_555
C7EB C7G 1_555 1_555
H4EB N1WC 1_555 1_555
N1EB H4WC 1_555 1_555
C3G C4G 1_555 1_555
C8PE N1PE 1_555 1_555
C8PE N1G 1_555 1_555
H4PE N1G 1_555 1_555
N1PE H4G 1_555 1_555
O2C Zr1C 1_555 1_555
O2C Zr1IA 1_555 1_555
Zr1C O2H 1_555 1_555
Zr1C O2S 1_555 1_555

#END
